[TITLE]
;;Project Title/Notes

[OPTIONS]
;;Option             Value
FLOW_UNITS           CMS
INFILTRATION         HORTON
FLOW_ROUTING         KINWAVE
LINK_OFFSETS         DEPTH
MIN_SLOPE            0
ALLOW_PONDING        YES
SKIP_STEADY_STATE    NO

START_DATE           10/25/2010
START_TIME           00:00:00
REPORT_START_DATE    10/25/2010
REPORT_START_TIME    00:00:00
END_DATE             10/25/2010
END_TIME             00:00:00
SWEEP_START          1/1
SWEEP_END            12/31
DRY_DAYS             0
REPORT_STEP          00:15:00
WET_STEP             00:05:00
DRY_STEP             01:00:00
ROUTING_STEP         0:00:30 

INERTIAL_DAMPING     PARTIAL
NORMAL_FLOW_LIMITED  BOTH
FORCE_MAIN_EQUATION  H-W
VARIABLE_STEP        0.75
LENGTHENING_STEP     0
MIN_SURFAREA         0
MAX_TRIALS           0
HEAD_TOLERANCE       0
SYS_FLOW_TOL         5
LAT_FLOW_TOL         5
MINIMUM_STEP         0.5
THREADS              1

[EVAPORATION]
;;Data Source    Parameters
;;-------------- ----------------
CONSTANT         0.0
DRY_ONLY         NO

[RAINGAGES]
;;Name           Format    Interval SCF      Source    
;;-------------- --------- ------ ------ ----------
1                INTENSITY 1:00     1.0      TIMESERIES TSrg1           

[SUBCATCHMENTS]
;;Name           Rain Gage        Outlet           Area     %Imperv  Width    %Slope   CurbLen  SnowPack        
;;-------------- ---------------- ---------------- -------- -------- -------- -------- -------- ----------------
; Name Raingage Outlet Area %Imperv Width Slope Clength
sub-1            1                1                0.805000 0.000000 226.600000 9.300000 0.000000                 
sub-10           1                10               0.003000 100.000000 10.000000 2.800000 0.000000                 
sub-11           1                11               0.002000 100.000000 5.000000 2.400000 0.000000                 
sub-12           1                12               0.005000 100.000000 20.600000 2.200000 0.000000                 
sub-12.1         1                12.1             0.002000 100.000000 5.000000 2.500000 0.000000                 
sub-12.11        1                12.11            0.026000 100.000000 30.700000 0.900000 0.000000                 
sub-12.13        1                12.13            0.020000 100.000000 30.000000 0.900000 0.000000                 
sub-12.14        1                12.14            0.012000 100.000000 21.700000 1.000000 0.000000                 
sub-12.15        1                12.15            0.005000 100.000000 14.500000 1.000000 0.000000                 
sub-12.2         1                12.2             0.039000 100.000000 47.000000 4.500000 0.000000                 
sub-12.3         1                12.3             0.034000 100.000000 25.900000 2.600000 0.000000                 
sub-12.4         1                12.4             0.899000 100.000000 455.000000 2.100000 0.000000                 
sub-12.5         1                12.5             0.016000 100.000000 47.300000 1.800000 0.000000                 
sub-12.51        1                12.51            0.002000 100.000000 5.000000 2.300000 0.000000                 
sub-12.52        1                12.52            0.012000 100.000000 28.700000 4.900000 0.000000                 
sub-12.53        1                12.53            0.002000 100.000000 5.000000 4.700000 0.000000                 
sub-12.55        1                12.55            0.015000 100.000000 38.500000 7.000000 0.000000                 
sub-12.6         1                12.6             0.216000 100.000000 128.600000 6.900000 0.000000                 
sub-12.61        1                12.61            0.006000 100.000000 20.000000 4.400000 0.000000                 
sub-12.62        1                12.62            0.008000 100.000000 24.700000 5.200000 0.000000                 
sub-12.63        1                12.63            0.005000 100.000000 25.900000 5.000000 0.000000                 
sub-12.64        1                12.64            0.005000 100.000000 20.600000 6.100000 0.000000                 
sub-12.65        1                12.65            0.315000 100.000000 233.700000 6.800000 0.000000                 
sub-12.7         1                12.7             0.519000 100.000000 296.600000 10.400000 0.000000                 
sub-12.8         1                12.8             0.029000 100.000000 37.200000 6.900000 0.000000                 
sub-13           1                13               0.059000 100.000000 159.300000 6.200000 0.000000                 
sub-13.1         1                13.1             0.005000 100.000000 14.500000 2.900000 0.000000                 
sub-13.2         1                13.2             0.107000 100.000000 146.100000 8.500000 0.000000                 
sub-13.3         1                13.3             0.384000 100.000000 179.400000 8.800000 0.000000                 
sub-13.4         1                13.4             0.198000 0.000000 116.800000 9.400000 0.000000                 
sub-13.42        1                13.42            0.003000 100.000000 16.500000 13.800000 0.000000                 
sub-13.43        1                13.43            0.122000 100.000000 87.800000 10.400000 0.000000                 
sub-13.5         1                13.5             0.530000 100.000000 204.800000 3.400000 0.000000                 
sub-13.6         1                13.6             0.055000 100.000000 49.700000 4.300000 0.000000                 
sub-14.1         1                14.1             0.020000 100.000000 36.900000 0.700000 0.000000                 
sub-14.2         1                14.2             0.015000 100.000000 26.200000 1.000000 0.000000                 
sub-14.3         1                14.3             0.029000 100.000000 68.400000 0.800000 0.000000                 
sub-14.4         1                14.4             0.790000 100.000000 302.800000 7.800000 0.000000                 
sub-140          1                *                1.627000 100.000000 324.200000 3.200000 0.000000                 
sub-140.1        1                *                0.023000 100.000000 41.600000 0.900000 0.000000                 
sub-2            1                2                0.104000 0.000000 116.800000 14.500000 0.000000                 
sub-3            1                3                0.629000 0.000000 193.500000 16.100000 0.000000                 
sub-300          1                300              0.064000 100.000000 43.200000 8.000000 0.000000                 
sub-301          1                301              0.182000 0.000000 285.100000 10.200000 0.000000                 
sub-301.1        1                301.1            0.138000 100.000000 102.700000 7.800000 0.000000                 
sub-301.2        1                301.2            2.228000 0.000000 648.000000 10.400000 0.000000                 
sub-301.3        1                301.3            1.156000 100.000000 315.100000 5.200000 0.000000                 
sub-301.31       1                301.31           0.025000 100.000000 40.700000 4.700000 0.000000                 
sub-301.5        1                301.5            0.577000 100.000000 96.200000 15.200000 0.000000                 
sub-301.7        1                301.7            0.010000 100.000000 45.200000 5.700000 0.000000                 
sub-301.8        1                301.8            0.005000 100.000000 25.900000 19.100000 0.000000                 
sub-302          1                302              0.957000 100.000000 491.900000 8.200000 0.000000                 
sub-302.2        1                302.2            6.596000 100.000000 1026.500000 11.800000 0.000000                 
sub-3021         1                3021             0.357000 100.000000 242.200000 6.600000 0.000000                 
sub-3022         1                3022             0.298000 100.000000 172.300000 7.400000 0.000000                 
sub-3023         1                3023             0.195000 100.000000 87.800000 9.600000 0.000000                 
sub-303          1                303              0.824000 100.000000 229.100000 9.400000 0.000000                 
sub-303.1        1                303.1            0.200000 100.000000 221.900000 7.900000 0.000000                 
sub-303.2        1                303.2            0.125000 0.000000 105.600000 8.000000 0.000000                 
sub-303.3        1                303.3            0.280000 100.000000 113.400000 9.200000 0.000000                 
sub-303.4        1                303.4            0.320000 100.000000 123.500000 7.200000 0.000000                 
sub-303.5        1                303.5            1.654000 0.000000 271.000000 9.900000 0.000000                 
sub-3031         1                3031             0.119000 100.000000 123.000000 11.000000 0.000000                 
sub-3032         1                3032             0.455000 100.000000 142.300000 9.700000 0.000000                 
sub-3033         1                3033             0.156000 100.000000 138.300000 10.200000 0.000000                 
sub-3034         1                3034             0.221000 100.000000 157.400000 8.500000 0.000000                 
sub-3035         1                3035             0.280000 100.000000 98.700000 11.900000 0.000000                 
sub-3038         1                3038             0.059000 100.000000 121.600000 5.000000 0.000000                 
sub-304          1                304              1.420000 100.000000 307.700000 8.500000 0.000000                 
sub-304.2        1                304.2            0.532000 100.000000 261.400000 8.800000 0.000000                 
sub-304.4        1                304.4            0.042000 100.000000 47.600000 8.000000 0.000000                 
sub-304.5        1                304.5            0.385000 0.000000 203.600000 9.300000 0.000000                 
sub-3041         1                3041             0.275000 100.000000 129.400000 9.700000 0.000000                 
sub-3042         1                3042             0.500000 100.000000 198.000000 8.900000 0.000000                 
sub-3042.1       1                3042.1           0.006000 100.000000 20.000000 3.800000 0.000000                 
sub-3043         1                3043             0.551000 100.000000 184.300000 8.800000 0.000000                 
sub-3044         1                3044             0.006000 100.000000 20.000000 6.600000 0.000000                 
sub-305          1                305              1.029000 100.000000 173.700000 14.600000 0.000000                 
sub-305.1        1                305.1            0.135000 100.000000 74.700000 19.700000 0.000000                 
sub-306          1                306              0.047000 100.000000 64.200000 7.500000 0.000000                 
sub-306.1        1                306.1            0.060000 100.000000 64.900000 8.800000 0.000000                 
sub-306.2        1                306.2            0.691000 100.000000 308.500000 9.000000 0.000000                 
sub-307          1                307              0.684000 100.000000 266.000000 15.600000 0.000000                 
sub-307.1        1                307.1            0.002000 100.000000 5.000000 27.800000 0.000000                 
sub-307.2        1                307.2            0.272000 100.000000 110.600000 22.100000 0.000000                 
sub-307.3        1                307.3            0.002000 100.000000 5.000000 7.800000 0.000000                 
sub-308          1                308              0.611000 100.000000 264.200000 10.600000 0.000000                 
sub-309          1                309              0.382000 100.000000 159.000000 14.400000 0.000000                 
sub-309.1        1                309.1            1.193000 100.000000 289.000000 15.400000 0.000000                 
sub-4            1                4                0.335000 0.000000 109.200000 14.400000 0.000000                 
sub-5            1                5                0.096000 0.000000 85.600000 10.900000 0.000000                 
sub-6            1                6                13.980000 0.000000 1447.200000 10.500000 0.000000                 
sub-6.1          1                6.1              0.187000 100.000000 164.500000 9.100000 0.000000                 
sub-6.11         1                6.11             0.091000 100.000000 107.300000 8.000000 0.000000                 
sub-6.2          1                6.2              0.552000 100.000000 201.100000 11.700000 0.000000                 
sub-6.3          1                6.3              0.010000 100.000000 23.700000 10.500000 0.000000                 
sub-7            1                7                0.006000 100.000000 20.000000 7.900000 0.000000                 
sub-7.1          1                7.1              0.016000 100.000000 43.000000 5.200000 0.000000                 
sub-7.2          1                7.2              0.580000 100.000000 253.000000 6.800000 0.000000                 
sub-7.3          1                7.3              0.023000 100.000000 48.900000 8.000000 0.000000                 
sub-7.4          1                7.4              0.145000 100.000000 80.000000 8.400000 0.000000                 
sub-7.41         1                7.41             0.021000 100.000000 36.500000 11.000000 0.000000                 
sub-7.5          1                7.5              0.155000 0.000000 121.800000 7.800000 0.000000                 
sub-8            1                8                0.010000 100.000000 30.000000 8.900000 0.000000                 
sub-8.1          1                8.1              0.008000 100.000000 30.200000 9.200000 0.000000                 
sub-8.2          1                8.2              0.018000 100.000000 43.000000 6.200000 0.000000                 
sub-8.3          1                8.3              0.006000 100.000000 20.000000 3.700000 0.000000                 
sub-9            1                9                0.015000 100.000000 48.100000 5.700000 0.000000                 
sub-D16          1                D16              0.002000 100.000000 5.000000 0.900000 0.000000                 
sub-D17          1                D17              0.015000 100.000000 33.000000 0.100000 0.000000                 
sub-D17.1        1                D17.1            0.008000 100.000000 24.700000 1.000000 0.000000                 

[SUBAREAS]
;;Subcatchment   N-Imperv   N-Perv     S-Imperv   S-Perv     PctZero    RouteTo    PctRouted 
;;-------------- ---------- ---------- ---------- ---------- ---------- ---------- ----------
sub-1            0.000000   0.000000   0.000000   0.600000   0.000000   OUTLET    
sub-10           0.000000   0.000000   0.600000   0.000000   0.000000   OUTLET    
sub-11           0.000000   0.000000   0.600000   0.000000   0.000000   OUTLET    
sub-12           0.000000   0.000000   0.600000   0.000000   0.000000   OUTLET    
sub-12.1         0.000000   0.000000   0.600000   0.000000   0.000000   OUTLET    
sub-12.11        0.000000   0.000000   0.600000   0.000000   0.000000   OUTLET    
sub-12.13        0.000000   0.000000   0.600000   0.000000   0.000000   OUTLET    
sub-12.14        0.000000   0.000000   0.600000   0.000000   0.000000   OUTLET    
sub-12.15        0.000000   0.000000   0.600000   0.000000   0.000000   OUTLET    
sub-12.2         0.000000   0.000000   0.600000   0.000000   0.000000   OUTLET    
sub-12.3         0.000000   0.000000   0.600000   0.000000   0.000000   OUTLET    
sub-12.4         0.000000   0.000000   0.600000   0.000000   0.000000   OUTLET    
sub-12.5         0.000000   0.000000   0.600000   0.000000   0.000000   OUTLET    
sub-12.51        0.000000   0.000000   0.600000   0.000000   0.000000   OUTLET    
sub-12.52        0.000000   0.000000   0.600000   0.000000   0.000000   OUTLET    
sub-12.53        0.000000   0.000000   0.600000   0.000000   0.000000   OUTLET    
sub-12.55        0.000000   0.000000   0.600000   0.000000   0.000000   OUTLET    
sub-12.6         0.000000   0.000000   0.600000   0.000000   0.000000   OUTLET    
sub-12.61        0.000000   0.000000   0.600000   0.000000   0.000000   OUTLET    
sub-12.62        0.000000   0.000000   0.600000   0.000000   0.000000   OUTLET    
sub-12.63        0.000000   0.000000   0.600000   0.000000   0.000000   OUTLET    
sub-12.64        0.000000   0.000000   0.600000   0.000000   0.000000   OUTLET    
sub-12.65        0.000000   0.000000   0.600000   0.000000   0.000000   OUTLET    
sub-12.7         0.000000   0.000000   0.600000   0.000000   0.000000   OUTLET    
sub-12.8         0.000000   0.000000   0.600000   0.000000   0.000000   OUTLET    
sub-13           0.000000   0.000000   0.600000   0.000000   0.000000   OUTLET    
sub-13.1         0.000000   0.000000   0.600000   0.000000   0.000000   OUTLET    
sub-13.2         0.000000   0.000000   0.600000   0.000000   0.000000   OUTLET    
sub-13.3         0.000000   0.000000   0.600000   0.000000   0.000000   OUTLET    
sub-13.4         0.000000   0.000000   0.000000   0.600000   0.000000   OUTLET    
sub-13.42        0.000000   0.000000   0.600000   0.000000   0.000000   OUTLET    
sub-13.43        0.000000   0.000000   0.600000   0.000000   0.000000   OUTLET    
sub-13.5         0.000000   0.000000   0.600000   0.000000   0.000000   OUTLET    
sub-13.6         0.000000   0.000000   0.600000   0.000000   0.000000   OUTLET    
sub-14.1         0.000000   0.000000   0.600000   0.000000   0.000000   OUTLET    
sub-14.2         0.000000   0.000000   0.600000   0.000000   0.000000   OUTLET    
sub-14.3         0.000000   0.000000   0.600000   0.000000   0.000000   OUTLET    
sub-14.4         0.000000   0.000000   0.600000   0.000000   0.000000   OUTLET    
sub-140          0.000000   0.000000   0.600000   0.000000   0.000000   OUTLET    
sub-140.1        0.000000   0.000000   0.600000   0.000000   0.000000   OUTLET    
sub-2            0.000000   0.000000   0.000000   0.600000   0.000000   OUTLET    
sub-3            0.000000   0.000000   0.000000   0.600000   0.000000   OUTLET    
sub-300          0.000000   0.000000   0.600000   0.000000   0.000000   OUTLET    
sub-301          0.000000   0.000000   0.000000   0.600000   0.000000   OUTLET    
sub-301.1        0.000000   0.000000   0.600000   0.000000   0.000000   OUTLET    
sub-301.2        0.000000   0.000000   0.000000   0.600000   0.000000   OUTLET    
sub-301.3        0.000000   0.000000   0.600000   0.000000   0.000000   OUTLET    
sub-301.31       0.000000   0.000000   0.600000   0.000000   0.000000   OUTLET    
sub-301.5        0.000000   0.000000   0.600000   0.000000   0.000000   OUTLET    
sub-301.7        0.000000   0.000000   0.600000   0.000000   0.000000   OUTLET    
sub-301.8        0.000000   0.000000   0.600000   0.000000   0.000000   OUTLET    
sub-302          0.000000   0.000000   0.600000   0.000000   0.000000   OUTLET    
sub-302.2        0.000000   0.000000   0.600000   0.000000   0.000000   OUTLET    
sub-3021         0.000000   0.000000   0.600000   0.000000   0.000000   OUTLET    
sub-3022         0.000000   0.000000   0.600000   0.000000   0.000000   OUTLET    
sub-3023         0.000000   0.000000   0.600000   0.000000   0.000000   OUTLET    
sub-303          0.000000   0.000000   0.600000   0.000000   0.000000   OUTLET    
sub-303.1        0.000000   0.000000   0.600000   0.000000   0.000000   OUTLET    
sub-303.2        0.000000   0.000000   0.000000   0.600000   0.000000   OUTLET    
sub-303.3        0.000000   0.000000   0.600000   0.000000   0.000000   OUTLET    
sub-303.4        0.000000   0.000000   0.600000   0.000000   0.000000   OUTLET    
sub-303.5        0.000000   0.000000   0.000000   0.600000   0.000000   OUTLET    
sub-3031         0.000000   0.000000   0.600000   0.000000   0.000000   OUTLET    
sub-3032         0.000000   0.000000   0.600000   0.000000   0.000000   OUTLET    
sub-3033         0.000000   0.000000   0.600000   0.000000   0.000000   OUTLET    
sub-3034         0.000000   0.000000   0.600000   0.000000   0.000000   OUTLET    
sub-3035         0.000000   0.000000   0.600000   0.000000   0.000000   OUTLET    
sub-3038         0.000000   0.000000   0.600000   0.000000   0.000000   OUTLET    
sub-304          0.000000   0.000000   0.600000   0.000000   0.000000   OUTLET    
sub-304.2        0.000000   0.000000   0.600000   0.000000   0.000000   OUTLET    
sub-304.4        0.000000   0.000000   0.600000   0.000000   0.000000   OUTLET    
sub-304.5        0.000000   0.000000   0.000000   0.600000   0.000000   OUTLET    
sub-3041         0.000000   0.000000   0.600000   0.000000   0.000000   OUTLET    
sub-3042         0.000000   0.000000   0.600000   0.000000   0.000000   OUTLET    
sub-3042.1       0.000000   0.000000   0.600000   0.000000   0.000000   OUTLET    
sub-3043         0.000000   0.000000   0.600000   0.000000   0.000000   OUTLET    
sub-3044         0.000000   0.000000   0.600000   0.000000   0.000000   OUTLET    
sub-305          0.000000   0.000000   0.600000   0.000000   0.000000   OUTLET    
sub-305.1        0.000000   0.000000   0.600000   0.000000   0.000000   OUTLET    
sub-306          0.000000   0.000000   0.600000   0.000000   0.000000   OUTLET    
sub-306.1        0.000000   0.000000   0.600000   0.000000   0.000000   OUTLET    
sub-306.2        0.000000   0.000000   0.600000   0.000000   0.000000   OUTLET    
sub-307          0.000000   0.000000   0.600000   0.000000   0.000000   OUTLET    
sub-307.1        0.000000   0.000000   0.600000   0.000000   0.000000   OUTLET    
sub-307.2        0.000000   0.000000   0.600000   0.000000   0.000000   OUTLET    
sub-307.3        0.000000   0.000000   0.600000   0.000000   0.000000   OUTLET    
sub-308          0.000000   0.000000   0.600000   0.000000   0.000000   OUTLET    
sub-309          0.000000   0.000000   0.600000   0.000000   0.000000   OUTLET    
sub-309.1        0.000000   0.000000   0.600000   0.000000   0.000000   OUTLET    
sub-4            0.000000   0.000000   0.000000   0.600000   0.000000   OUTLET    
sub-5            0.000000   0.000000   0.000000   0.600000   0.000000   OUTLET    
sub-6            0.000000   0.000000   0.000000   0.600000   0.000000   OUTLET    
sub-6.1          0.000000   0.000000   0.600000   0.000000   0.000000   OUTLET    
sub-6.11         0.000000   0.000000   0.600000   0.000000   0.000000   OUTLET    
sub-6.2          0.000000   0.000000   0.600000   0.000000   0.000000   OUTLET    
sub-6.3          0.000000   0.000000   0.600000   0.000000   0.000000   OUTLET    
sub-7            0.000000   0.000000   0.600000   0.000000   0.000000   OUTLET    
sub-7.1          0.000000   0.000000   0.600000   0.000000   0.000000   OUTLET    
sub-7.2          0.000000   0.000000   0.600000   0.000000   0.000000   OUTLET    
sub-7.3          0.000000   0.000000   0.600000   0.000000   0.000000   OUTLET    
sub-7.4          0.000000   0.000000   0.600000   0.000000   0.000000   OUTLET    
sub-7.41         0.000000   0.000000   0.600000   0.000000   0.000000   OUTLET    
sub-7.5          0.000000   0.000000   0.000000   0.600000   0.000000   OUTLET    
sub-8            0.000000   0.000000   0.600000   0.000000   0.000000   OUTLET    
sub-8.1          0.000000   0.000000   0.600000   0.000000   0.000000   OUTLET    
sub-8.2          0.000000   0.000000   0.600000   0.000000   0.000000   OUTLET    
sub-8.3          0.000000   0.000000   0.600000   0.000000   0.000000   OUTLET    
sub-9            0.000000   0.000000   0.600000   0.000000   0.000000   OUTLET    
sub-D16          0.000000   0.000000   0.600000   0.000000   0.000000   OUTLET    
sub-D17          0.000000   0.000000   0.600000   0.000000   0.000000   OUTLET    
sub-D17.1        0.000000   0.000000   0.600000   0.000000   0.000000   OUTLET    

[INFILTRATION]
;;Subcatchment   MaxRate    MinRate    Decay      DryTime    MaxInfil  
;;-------------- ---------- ---------- ---------- ---------- ----------
sub-1            36.000000  3.600000   5.400000   4.527804   0.000000  
sub-10           0.000000   0.000000   0.000000   999.000000 0.000000  
sub-11           0.000000   0.000000   0.000000   999.000000 0.000000  
sub-12           0.000000   0.000000   0.000000   999.000000 0.000000  
sub-12.1         0.000000   0.000000   0.000000   999.000000 0.000000  
sub-12.11        0.000000   0.000000   0.000000   999.000000 0.000000  
sub-12.13        0.000000   0.000000   0.000000   999.000000 0.000000  
sub-12.14        0.000000   0.000000   0.000000   999.000000 0.000000  
sub-12.15        0.000000   0.000000   0.000000   999.000000 0.000000  
sub-12.2         0.000000   0.000000   0.000000   999.000000 0.000000  
sub-12.3         0.000000   0.000000   0.000000   999.000000 0.000000  
sub-12.4         0.000000   0.000000   0.000000   999.000000 0.000000  
sub-12.5         0.000000   0.000000   0.000000   999.000000 0.000000  
sub-12.51        0.000000   0.000000   0.000000   999.000000 0.000000  
sub-12.52        0.000000   0.000000   0.000000   999.000000 0.000000  
sub-12.53        0.000000   0.000000   0.000000   999.000000 0.000000  
sub-12.55        0.000000   0.000000   0.000000   999.000000 0.000000  
sub-12.6         0.000000   0.000000   0.000000   999.000000 0.000000  
sub-12.61        0.000000   0.000000   0.000000   999.000000 0.000000  
sub-12.62        0.000000   0.000000   0.000000   999.000000 0.000000  
sub-12.63        0.000000   0.000000   0.000000   999.000000 0.000000  
sub-12.64        0.000000   0.000000   0.000000   999.000000 0.000000  
sub-12.65        0.000000   0.000000   0.000000   999.000000 0.000000  
sub-12.7         0.000000   0.000000   0.000000   999.000000 0.000000  
sub-12.8         0.000000   0.000000   0.000000   999.000000 0.000000  
sub-13           0.000000   0.000000   0.000000   999.000000 0.000000  
sub-13.1         0.000000   0.000000   0.000000   999.000000 0.000000  
sub-13.2         0.000000   0.000000   0.000000   999.000000 0.000000  
sub-13.3         0.000000   0.000000   0.000000   999.000000 0.000000  
sub-13.4         36.000000  3.600000   5.400000   4.527804   0.000000  
sub-13.42        0.000000   0.000000   0.000000   999.000000 0.000000  
sub-13.43        0.000000   0.000000   0.000000   999.000000 0.000000  
sub-13.5         0.000000   0.000000   0.000000   999.000000 0.000000  
sub-13.6         0.000000   0.000000   0.000000   999.000000 0.000000  
sub-14.1         0.000000   0.000000   0.000000   999.000000 0.000000  
sub-14.2         0.000000   0.000000   0.000000   999.000000 0.000000  
sub-14.3         0.000000   0.000000   0.000000   999.000000 0.000000  
sub-14.4         0.000000   0.000000   0.000000   999.000000 0.000000  
sub-140          0.000000   0.000000   0.000000   999.000000 0.000000  
sub-140.1        0.000000   0.000000   0.000000   999.000000 0.000000  
sub-2            36.000000  3.600000   5.400000   4.527804   0.000000  
sub-3            36.000000  3.600000   5.400000   4.527804   0.000000  
sub-300          0.000000   0.000000   0.000000   999.000000 0.000000  
sub-301          36.000000  3.600000   5.400000   4.527804   0.000000  
sub-301.1        0.000000   0.000000   0.000000   999.000000 0.000000  
sub-301.2        36.000000  3.600000   5.400000   4.527804   0.000000  
sub-301.3        0.000000   0.000000   0.000000   999.000000 0.000000  
sub-301.31       0.000000   0.000000   0.000000   999.000000 0.000000  
sub-301.5        0.000000   0.000000   0.000000   999.000000 0.000000  
sub-301.7        0.000000   0.000000   0.000000   999.000000 0.000000  
sub-301.8        0.000000   0.000000   0.000000   999.000000 0.000000  
sub-302          0.000000   0.000000   0.000000   999.000000 0.000000  
sub-302.2        0.000000   0.000000   0.000000   999.000000 0.000000  
sub-3021         0.000000   0.000000   0.000000   999.000000 0.000000  
sub-3022         0.000000   0.000000   0.000000   999.000000 0.000000  
sub-3023         0.000000   0.000000   0.000000   999.000000 0.000000  
sub-303          0.000000   0.000000   0.000000   999.000000 0.000000  
sub-303.1        0.000000   0.000000   0.000000   999.000000 0.000000  
sub-303.2        36.000000  3.600000   5.400000   4.527804   0.000000  
sub-303.3        0.000000   0.000000   0.000000   999.000000 0.000000  
sub-303.4        0.000000   0.000000   0.000000   999.000000 0.000000  
sub-303.5        36.000000  3.600000   5.400000   4.527804   0.000000  
sub-3031         0.000000   0.000000   0.000000   999.000000 0.000000  
sub-3032         0.000000   0.000000   0.000000   999.000000 0.000000  
sub-3033         0.000000   0.000000   0.000000   999.000000 0.000000  
sub-3034         0.000000   0.000000   0.000000   999.000000 0.000000  
sub-3035         0.000000   0.000000   0.000000   999.000000 0.000000  
sub-3038         0.000000   0.000000   0.000000   999.000000 0.000000  
sub-304          0.000000   0.000000   0.000000   999.000000 0.000000  
sub-304.2        0.000000   0.000000   0.000000   999.000000 0.000000  
sub-304.4        0.000000   0.000000   0.000000   999.000000 0.000000  
sub-304.5        36.000000  3.600000   5.400000   4.527804   0.000000  
sub-3041         0.000000   0.000000   0.000000   999.000000 0.000000  
sub-3042         0.000000   0.000000   0.000000   999.000000 0.000000  
sub-3042.1       0.000000   0.000000   0.000000   999.000000 0.000000  
sub-3043         0.000000   0.000000   0.000000   999.000000 0.000000  
sub-3044         0.000000   0.000000   0.000000   999.000000 0.000000  