[TITLE]
;;Project Title/Notes

[OPTIONS]
;;Option             Value
FLOW_UNITS           CMS
INFILTRATION         HORTON
FLOW_ROUTING         DYNWAVE
LINK_OFFSETS         DEPTH
MIN_SLOPE            0
ALLOW_PONDING        YES
SKIP_STEADY_STATE    NO

START_DATE           01/01/2017
START_TIME           00:00:00
REPORT_START_DATE    01/01/2017
REPORT_START_TIME    00:00:00
END_DATE             01/01/2017
END_TIME             05:00:00
SWEEP_START          01/01
SWEEP_END            12/31
DRY_DAYS             0
REPORT_STEP          00:15:00
WET_STEP             00:05:00
DRY_STEP             01:00:00
ROUTING_STEP         0:00:01 

INERTIAL_DAMPING     PARTIAL
NORMAL_FLOW_LIMITED  BOTH
FORCE_MAIN_EQUATION  D-W
VARIABLE_STEP        0.00
LENGTHENING_STEP     0
MIN_SURFAREA         1.14
MAX_TRIALS           8
HEAD_TOLERANCE       0.0015
SYS_FLOW_TOL         5
LAT_FLOW_TOL         5
MINIMUM_STEP         0.5
THREADS              1

[EVAPORATION]
;;Data Source    Parameters
;;-------------- ----------------
CONSTANT         0
DRY_ONLY         NO

[RAINGAGES]
;;Name           Format    Interval SCF      Source    
;;-------------- --------- ------ ------ ----------
1                INTENSITY 1:00     1.0      TIMESERIES test            

[SUBCATCHMENTS]
;;Name           Rain Gage        Outlet           Area     %Imperv  Width    %Slope   CurbLen  SnowPack        
;;-------------- ---------------- ---------------- -------- -------- -------- -------- -------- ----------------
; Name Raingage Outlet Area %Imperv Width Slope Clength
Catchment_100	1	Node_274	0.038303	32	43	16	0
Catchment_1000	1	Node_1551	0.241811	32	43	16	0
Catchment_1001	1	Node_1314	0.0733	32	43	16	0
Catchment_1002	1	Node_1294	0.062062	32	43	16	0
Catchment_1003	1	Node_1513	0.217503	32	43	16	0
Catchment_1004	1	Node_1552	0.157439	32	43	16	0
Catchment_1005	1	Node_1526	0.19974	32	43	16	0
Catchment_1006	1	Node_1547	0.14895	32	43	16	0
Catchment_1007	1	Node_1502	0.215639	32	43	16	0
Catchment_1008	1	Node_1501	0.281621	32	43	16	0
Catchment_1009	1	Node_1489	0.480228	32	43	16	0
Catchment_101	1	Node_278	0.051553	32	43	16	0
Catchment_1010	1	Node_1455	0.242006	32	43	16	0
Catchment_1011	1	Node_1396	1.134142	32	43	16	0
Catchment_1012	1	Node_1491	0.10372	32	43	16	0
Catchment_1013	1	Node_987	0.177031	32	43	16	0
Catchment_1014	1	Node_992	0.113083	32	43	16	0
Catchment_1015	1	Node_1015	0.073293	32	43	16	0
Catchment_1016	1	Node_1274	0.082698	32	43	16	0
Catchment_1017	1	Node_1251	0.183248	32	43	16	0
Catchment_1018	1	Node_1221	0.208748	32	43	16	0
Catchment_1019	1	Node_1192	0.095586	32	43	16	0
Catchment_102	1	Node_297	0.009028	32	43	16	0
Catchment_1020	1	Node_1305	0.068504	32	43	16	0
Catchment_1021	1	Node_1122	0.191942	32	43	16	0
Catchment_1022	1	Node_1191	0.236966	32	43	16	0
Catchment_1023	1	Node_1269	0.071129	32	43	16	0
Catchment_1024	1	Node_1069	0.079466	32	43	16	0
Catchment_1025	1	Node_1027	0.032903	32	43	16	0
Catchment_1026	1	Node_1446	1.880459	32	43	16	0
Catchment_1027	1	Node_1406	0.521423	32	43	16	0
Catchment_1028	1	1_127	0.291716	32	43	16	0
Catchment_1029	1	Node_1014	0.040473	32	43	16	0
Catchment_103	1	Node_299	0.18238	32	43	16	0
Catchment_1030	1	Node_1217	0.092354	32	43	16	0
Catchment_1031	1	Node_1238	0.768399	32	43	16	0
Catchment_1032	1	Node_1152	0.110961	32	43	16	0
Catchment_1033	1	Node_1175	0.173021	32	43	16	0
Catchment_1034	1	Node_1204	0.228957	32	43	16	0
Catchment_1035	1	Node_1127	0.078603	32	43	16	0
Catchment_1036	1	Node_1113	0.051207	32	43	16	0
Catchment_1037	1	Node_1237	0.315538	32	43	16	0
Catchment_1038	1	Node_1271	0.339747	32	43	16	0
Catchment_1039	1	Node_1284	0.238819	32	43	16	0
Catchment_104	1	Node_290	0.008057	32	43	16	0
Catchment_1040	1	Node_1334	0.705875	32	43	16	0
Catchment_1041	1	Node_1394	0.306821	32	43	16	0
Catchment_1042	1	Node_1381	0.154383	32	43	16	0
Catchment_1043	1	Node_1367	0.147497	32	43	16	0
Catchment_1044	1	Node_1354	0.252787	32	43	16	0
Catchment_1045	1	Node_1388	0.70273	32	43	16	0
Catchment_1046	1	Node_1353	0.117434	32	43	16	0
Catchment_1047	1	Node_1324	0.129921	32	43	16	0
Catchment_1048	1	Node_1360	0.048692	32	43	16	0
Catchment_1049	1	Node_1362	0.165358	32	43	16	0
Catchment_105	1	Node_281	0.307967	32	43	16	0
Catchment_1050	1	Node_1338	0.114378	32	43	16	0
Catchment_1051	1	Node_1292	0.032166	32	43	16	0
Catchment_1052	1	Node_1303	0.078535	32	43	16	0
Catchment_1053	1	Node_1293	0.167748	32	43	16	0
Catchment_1054	1	Node_1323	0.09714	32	43	16	0
Catchment_1055	1	Node_1472	0.277881	32	43	16	0
Catchment_1056	1	Node_1207	0.045193	32	43	16	0
Catchment_1057	1	Node_1499	0.250829	32	43	16	0
Catchment_1058	1	Node_1510	0.31534	32	43	16	0
Catchment_1059	1	Node_1582	0.153528	32	43	16	0
Catchment_106	1	Node_291	0.186252	32	43	16	0
Catchment_1060	1	Node_1537	0.122374	32	43	16	0
Catchment_1061	1	1_134	0.128868	32	43	16	0
Catchment_1062	1	Node_1529	0.260518	32	43	16	0
Catchment_1063	1	Node_1548	0.142515	32	43	16	0
Catchment_1064	1	Node_1357	0.318853	32	43	16	0
Catchment_1065	1	Node_1190	0.111571	32	43	16	0
Catchment_1066	1	Node_1220	0.168405	32	43	16	0
Catchment_1067	1	Node_1107	0.120604	32	43	16	0
Catchment_1068	1	Node_1297	0.292337	32	43	16	0
Catchment_1069	1	Node_1315	0.31474	32	43	16	0
Catchment_107	1	Node_236	0.487577	32	43	16	0
Catchment_1070	1	Node_1171	0.122748	32	43	16	0
Catchment_1071	1	Node_1098	0.046648	32	43	16	0
Catchment_1072	1	Node_1094	0.009275	32	43	16	0
Catchment_1073	1	1_82	0.016416	32	43	16	0
Catchment_1074	1	Node_1114	0.06027	32	43	16	0
Catchment_1075	1	Node_1135	0.115071	32	43	16	0
Catchment_1076	1	Node_1327	0.444167	32	43	16	0
Catchment_1077	1	Node_1465	1.179063	32	43	16	0
Catchment_1078	1	Node_1562	0.227487	32	43	16	0
Catchment_1079	1	Node_1377	0.27055	32	43	16	0
Catchment_108	1	Node_286	0.00784	32	43	16	0
Catchment_1080	1	Node_964	0.068298	32	43	16	0
Catchment_1081	1	Node_1163	0.132988	32	43	16	0
Catchment_1082	1	Node_974	0.0935	32	43	16	0
Catchment_1083	1	Node_1000	0.256766	32	43	16	0
Catchment_1084	1	Node_1342	0.126478	32	43	16	0
Catchment_1085	1	Node_956	0.089525	32	43	16	0
Catchment_1086	1	Node_1071	0.202278	32	43	16	0
Catchment_1087	1	Node_1082	0.199432	32	43	16	0
Catchment_1088	1	Node_1261	0.164181	32	43	16	0
Catchment_1089	1	Node_944	0.080106	32	43	16	0
Catchment_109	1	Node_388	0.168974	32	43	16	0
Catchment_1090	1	Node_1312	0.117762	32	43	16	0
Catchment_1091	1	Node_1307	0.117977	32	43	16	0
Catchment_1092	1	Node_1178	0.035737	32	43	16	0
Catchment_1093	1	Node_1017	0.229158	32	43	16	0
Catchment_1094	1	Node_1081	0.219566	32	43	16	0
Catchment_1095	1	Node_1065	0.029837	32	43	16	0
Catchment_1096	1	Node_1035	0.024644	32	43	16	0
Catchment_1097	1	Node_1264	0.138172	32	43	16	0
Catchment_1098	1	Node_1149	0.111921	32	43	16	0
Catchment_1099	1	Node_1194	0.117181	32	43	16	0
Catchment_110	1	Node_149	0.411442	32	43	16	0
Catchment_1100	1	Node_1029	0.257096	32	43	16	0
Catchment_1101	1	Node_1063	0.052019	32	43	16	0
Catchment_1102	1	Node_1042	0.228269	32	43	16	0
Catchment_1103	1	Node_1131	0.137061	32	43	16	0
Catchment_1104	1	Node_1154	0.053215	32	43	16	0
Catchment_1105	1	Node_1177	0.120513	32	43	16	0
Catchment_1106	1	Node_1181	0.119303	32	43	16	0
Catchment_1107	1	Node_1250	0.129328	32	43	16	0
Catchment_1108	1	Node_1280	0.110185	32	43	16	0
Catchment_1109	1	Node_1247	0.175732	32	43	16	0
Catchment_111	1	Node_1651	0.142053	32	43	16	0
Catchment_1110	1	Node_1112	0.153134	32	43	16	0
Catchment_1111	1	Node_1095	0.124697	32	43	16	0
Catchment_1112	1	Node_1571	0.095335	32	43	16	0
Catchment_1113	1	Node_1349	0.392902	32	43	16	0
Catchment_1114	1	Node_1370	0.290458	32	43	16	0
Catchment_1115	1	Node_1226	0.123652	32	43	16	0
Catchment_1116	1	Node_1239	0.228261	32	43	16	0
Catchment_1117	1	Node_1383	0.266084	32	43	16	0
Catchment_1118	1	Node_1168	0.089809	32	43	16	0
Catchment_1119	1	Node_1425	0.423244	32	43	16	0
Catchment_112	1	Node_1641	0.231377	32	43	16	0
Catchment_1120	1	Node_1400	0.143779	32	43	16	0
Catchment_1121	1	Node_1187	0.10325	32	43	16	0
Catchment_1122	1	Node_1165	0.081953	32	43	16	0
Catchment_1123	1	Node_1437	0.159906	32	43	16	0
Catchment_1124	1	Node_1439	0.096679	32	43	16	0
Catchment_1125	1	Node_1361	0.270303	32	43	16	0
Catchment_1126	1	Node_1037	0.043392	32	43	16	0
Catchment_1127	1	Node_1244	0.221885	32	43	16	0
Catchment_1128	1	Node_1162	0.132809	32	43	16	0
Catchment_1129	1	Node_1444	1.603797	32	43	16	0
Catchment_113	1	Node_1647	0.157765	32	43	16	0
Catchment_1130	1	Node_1453	0.179009	32	43	16	0
Catchment_1131	1	Node_1285	0.035401	32	43	16	0
Catchment_1132	1	Node_1291	0.03964	32	43	16	0
Catchment_1133	1	Node_1278	0.091266	32	43	16	0
Catchment_1134	1	Node_1456	0.076026	32	43	16	0
Catchment_1135	1	Node_1300	0.076014	32	43	16	0
Catchment_1136	1	Node_1298	0.095334	32	43	16	0
Catchment_1137	1	Node_1310	0.090099	32	43	16	0
Catchment_1138	1	Node_1343	0.076354	32	43	16	0
Catchment_1139	1	Node_1316	0.102498	32	43	16	0
Catchment_114	1	Node_1662	0.155684	32	43	16	0
Catchment_1140	1	Node_1348	0.208606	32	43	16	0
Catchment_1141	1	Node_1403	0.21332	32	43	16	0
Catchment_1142	1	Node_1408	0.276527	32	43	16	0
Catchment_1143	1	Node_1286	0.053219	32	43	16	0
Catchment_1144	1	Node_1332	0.119827	32	43	16	0
Catchment_1145	1	Node_1322	0.043805	32	43	16	0
Catchment_1146	1	Node_1364	0.158269	32	43	16	0
Catchment_1147	1	Node_1279	0.025706	32	43	16	0
Catchment_1148	1	Node_1434	0.204656	32	43	16	0
Catchment_1149	1	Node_1295	0.082352	32	43	16	0
Catchment_115	1	Node_1661	0.393645	32	43	16	0
Catchment_1150	1	Node_1325	0.1416	32	43	16	0
Catchment_1151	1	Node_1183	0.095837	32	43	16	0
Catchment_1152	1	Node_1356	0.064186	32	43	16	0
Catchment_1153	1	Node_1270	0.109237	32	43	16	0
Catchment_1154	1	Node_1366	0.07663	32	43	16	0
Catchment_1155	1	Node_1160	0.097231	32	43	16	0
Catchment_1156	1	Node_1054	0.166882	32	43	16	0
Catchment_1157	1	Node_1179	0.102298	32	43	16	0
Catchment_1158	1	Node_1243	0.142037	32	43	16	0
Catchment_1159	1	Node_1277	0.243358	32	43	16	0
Catchment_116	1	Node_1663	0.233481	32	43	16	0
Catchment_1160	1	Node_1147	0.154674	32	43	16	0
Catchment_1161	1	Node_1340	0.268542	32	43	16	0
Catchment_1162	1	Node_1311	0.15443	32	43	16	0
Catchment_1163	1	Node_1359	0.092642	32	43	16	0
Catchment_1164	1	Node_1363	0.017138	32	43	16	0
Catchment_1165	1	Node_1215	0.090755	32	43	16	0
Catchment_1166	1	Node_1206	0.012965	32	43	16	0
Catchment_1167	1	Node_1414	0.099466	32	43	16	0
Catchment_1168	1	Node_1567	0.058186	32	43	16	0
Catchment_1169	1	Node_1563	0.122204	32	43	16	0
Catchment_117	1	Node_137	0.200865	32	43	16	0
Catchment_1170	1	Node_1985	2.904087	32	43	16	0
Catchment_1171	1	1_137	0.451939	32	43	16	0
Catchment_1172	1	Node_1614	0.371813	32	43	16	0
Catchment_1173	1	Node_1611	0.119197	32	43	16	0
Catchment_1174	1	Node_1612	0.12894	32	43	16	0
Catchment_1175	1	Node_1983	2.348913	32	43	16	0
Catchment_1176	1	Node_1984	3.068864	32	43	16	0
Catchment_1177	1	1_126	0.609839	32	43	16	0
Catchment_1178	1	Node_1306	0.034338	32	43	16	0
Catchment_1179	1	Node_1304	0.029662	32	43	16	0
Catchment_118	1	Node_154	0.216918	32	43	16	0
Catchment_1180	1	Node_1302	0.055213	32	43	16	0
Catchment_1181	1	Node_1321	0.05514	32	43	16	0
Catchment_1182	1	Node_1328	0.231321	32	43	16	0
Catchment_1183	1	Node_1283	0.125588	32	43	16	0
Catchment_1184	1	Node_844	0.144302	32	43	16	0
Catchment_1185	1	Node_832	0.072984	32	43	16	0
Catchment_1186	1	Node_724	0.075927	32	43	16	0
Catchment_1187	1	Node_620	0.054662	32	43	16	0
Catchment_1188	1	Node_609	0.063788	32	43	16	0
Catchment_1189	1	Node_452	0.292055	32	43	16	0
Catchment_119	1	Node_1666	0.203198	32	43	16	0
Catchment_1190	1	Node_851	0.180673	32	43	16	0
Catchment_1191	1	Node_878	0.067425	32	43	16	0
Catchment_1192	1	Node_1820	0.148043	32	43	16	0
Catchment_1193	1	Node_1819	0.130096	32	43	16	0
Catchment_1194	1	Node_1926	0.302216	32	43	16	0
Catchment_1195	1	Node_1791	0.129612	32	43	16	0
Catchment_1196	1	Node_535	0.071584	32	43	16	0
Catchment_1197	1	Node_1808	0.099778	32	43	16	0
Catchment_1198	1	Node_582	0.125941	32	43	16	0
Catchment_1199	1	Node_833	0.088462	32	43	16	0
Catchment_120	1	Node_1669	0.341989	32	43	16	0
Catchment_1200	1	Node_837	0.155483	32	43	16	0
Catchment_1201	1	Node_841	0.299735	32	43	16	0
Catchment_1202	1	Node_845	0.194663	32	43	16	0
Catchment_1203	1	Node_829	0.021569	32	43	16	0
Catchment_1204	1	1_53	0.128874	32	43	16	0
Catchment_1205	1	Node_735	0.050707	32	43	16	0
Catchment_1206	1	Node_858	0.229731	32	43	16	0
Catchment_1207	1	Node_740	0.220289	32	43	16	0
Catchment_1208	1	Node_2002	0.016656	32	43	16	0
Catchment_1209	1	Node_842	0.052194	32	43	16	0
Catchment_121	1	Node_1654	0.365974	32	43	16	0
Catchment_1210	1	Node_863	0.093521	32	43	16	0
Catchment_1211	1	Node_839	0.044906	32	43	16	0
Catchment_1212	1	Node_650	0.053402	32	43	16	0
Catchment_1213	1	Node_666	0.069864	32	43	16	0
Catchment_1214	1	Node_692	0.026816	32	43	16	0
Catchment_1215	1	Node_677	0.131534	32	43	16	0
Catchment_1216	1	Node_684	0.110557	32	43	16	0
Catchment_1217	1	Node_698	0.014801	32	43	16	0
Catchment_1218	1	Node_647	0.057067	32	43	16	0
Catchment_1219	1	1_56	0.039625	32	43	16	0
Catchment_122	1	Node_334	0.324979	32	43	16	0
Catchment_1220	1	Node_625	0.112541	32	43	16	0
Catchment_1221	1	Node_708	0.089959	32	43	16	0
Catchment_1222	1	Node_748	0.258248	32	43	16	0
Catchment_1223	1	Node_757	0.205274	32	43	16	0
Catchment_1224	1	Node_1975	0.091218	32	43	16	0
Catchment_1225	1	Node_1974	0.073619	32	43	16	0
Catchment_1226	1	Node_2000	0.018483	32	43	16	0
Catchment_1227	1	Node_661	0.206678	32	43	16	0
Catchment_1228	1	Node_766	0.165566	32	43	16	0
Catchment_1229	1	Node_1973	0.044133	32	43	16	0
Catchment_123	1	Node_342	0.020835	32	43	16	0
Catchment_1230	1	1_54	0.029521	32	43	16	0
Catchment_1231	1	Node_1976	0.090947	32	43	16	0
Catchment_1232	1	Node_690	0.07568	32	43	16	0
Catchment_1233	1	Node_2001	0.030089	32	43	16	0
Catchment_1234	1	Node_697	0.046401	32	43	16	0
Catchment_1235	1	Node_583	0.059405	32	43	16	0
Catchment_1236	1	Node_585	0.007952	32	43	16	0
Catchment_1237	1	Node_569	0.058227	32	43	16	0
Catchment_1238	1	Node_584	0.010634	32	43	16	0
Catchment_1239	1	Node_587	0.01819	32	43	16	0
Catchment_124	1	Node_344	0.016233	32	43	16	0
Catchment_1240	1	Node_523	0.093602	32	43	16	0
Catchment_1241	1	Node_555	0.02786	32	43	16	0
Catchment_1242	1	Node_547	0.028958	32	43	16	0
Catchment_1243	1	Node_707	0.099683	32	43	16	0
Catchment_1244	1	Node_726	0.039615	32	43	16	0
Catchment_1245	1	Node_741	0.04933	32	43	16	0
Catchment_1246	1	Node_780	0.041023	32	43	16	0
Catchment_1247	1	Node_761	0.051464	32	43	16	0
Catchment_1248	1	Node_591	0.046554	32	43	16	0
Catchment_1249	1	Node_1972	0.02559	32	43	16	0
Catchment_125	1	Node_1665	0.268483	32	43	16	0
Catchment_1250	1	Node_808	0.012399	32	43	16	0
Catchment_1251	1	Node_1999	0.003579	32	43	16	0
Catchment_1252	1	Node_796	0.065634	32	43	16	0
Catchment_1253	1	Node_1971	0.009837	32	43	16	0
Catchment_1254	1	Node_754	0.17064	32	43	16	0
Catchment_1255	1	1_44	0.116349	32	43	16	0
Catchment_1256	1	Node_631	0.069641	32	43	16	0
Catchment_1257	1	Node_642	0.025014	32	43	16	0
Catchment_1258	1	Node_645	0.018553	32	43	16	0
Catchment_1259	1	Node_651	0.021805	32	43	16	0
Catchment_126	1	Node_1653	0.206078	32	43	16	0
Catchment_1260	1	Node_656	0.026067	32	43	16	0
Catchment_1261	1	Node_556	0.356445	32	43	16	0
Catchment_1262	1	1_41	0.340047	32	43	16	0
Catchment_1263	1	Node_515	0.106033	32	43	16	0
Catchment_1264	1	Node_786	0.078013	32	43	16	0
Catchment_1265	1	Node_560	0.156735	32	43	16	0
Catchment_1266	1	Node_534	0.591738	32	43	16	0
Catchment_1267	1	Node_1796	0.047675	32	43	16	0
Catchment_1268	1	Node_561	0.036121	32	43	16	0
Catchment_1269	1	Node_1806	0.131758	32	43	16	0
Catchment_127	1	Node_1650	0.106305	32	43	16	0
Catchment_1270	1	Node_622	0.125373	32	43	16	0
Catchment_1271	1	Node_636	0.36067	32	43	16	0
Catchment_1272	1	Node_617	0.087561	32	43	16	0
Catchment_1273	1	Node_597	0.204414	32	43	16	0
Catchment_1274	1	Node_581	0.09311	32	43	16	0
Catchment_1275	1	Node_575	0.245336	32	43	16	0
Catchment_1276	1	Node_565	0.208653	32	43	16	0
Catchment_1277	1	Node_489	0.32416	32	43	16	0
Catchment_1278	1	Node_473	0.240952	32	43	16	0
Catchment_1279	1	Node_579	0.285358	32	43	16	0
Catchment_128	1	Node_1668	0.595401	32	43	16	0
Catchment_1280	1	Node_518	0.463015	32	43	16	0
Catchment_1281	1	Node_557	0.079967	32	43	16	0
Catchment_1282	1	Node_635	0.110802	32	43	16	0
Catchment_1283	1	Node_596	0.143571	32	43	16	0
Catchment_1284	1	Node_588	0.19365	32	43	16	0
Catchment_1285	1	Node_598	0.067317	32	43	16	0
Catchment_1286	1	Node_606	0.035553	32	43	16	0
Catchment_1287	1	Node_600	0.039652	32	43	16	0
Catchment_1288	1	Node_605	0.029999	32	43	16	0
Catchment_1289	1	Node_612	0.064847	32	43	16	0
Catchment_129	1	Node_1643	0.601673	32	43	16	0
Catchment_1290	1	Node_618	0.043567	32	43	16	0
Catchment_1291	1	Node_629	0.12514	32	43	16	0
Catchment_1292	1	Node_664	0.037657	32	43	16	0
Catchment_1293	1	Node_670	0.097983	32	43	16	0
Catchment_1294	1	Node_626	0.063558	32	43	16	0
Catchment_1295	1	Node_633	0.043006	32	43	16	0
Catchment_1296	1	Node_765	0.095147	32	43	16	0
Catchment_1297	1	Node_756	0.159597	32	43	16	0
Catchment_1298	1	Node_675	0.060714	32	43	16	0
Catchment_1299	1	Node_672	0.08352	32	43	16	0
Catchment_130	1	Node_1652	0.227932	32	43	16	0
Catchment_1300	1	Node_696	0.033409	32	43	16	0
Catchment_1301	1	Node_691	0.025924	32	43	16	0
Catchment_1302	1	Node_680	0.047374	32	43	16	0
Catchment_1303	1	Node_624	0.301006	32	43	16	0
Catchment_1304	1	Node_655	0.122686	32	43	16	0
Catchment_1305	1	Node_660	0.077271	32	43	16	0
Catchment_1306	1	Node_599	0.383346	32	43	16	0
Catchment_1307	1	Node_644	0.125965	32	43	16	0
Catchment_1308	1	Node_619	0.032442	32	43	16	0
Catchment_1309	1	Node_755	0.027728	32	43	16	0
Catchment_131	1	Node_1657	0.161757	32	43	16	0
Catchment_1310	1	Node_764	0.025181	32	43	16	0
Catchment_1311	1	Node_623	0.08257	32	43	16	0
Catchment_1312	1	Node_734	0.109841	32	43	16	0
Catchment_1313	1	Node_659	0.080203	32	43	16	0
Catchment_1314	1	Node_657	0.089784	32	43	16	0
Catchment_1315	1	Node_663	0.022842	32	43	16	0
Catchment_1316	1	Node_671	0.034842	32	43	16	0
Catchment_1317	1	Node_719	0.091752	32	43	16	0
Catchment_1318	1	Node_685	0.03278	32	43	16	0
Catchment_1319	1	Node_627	0.090418	32	43	16	0
Catchment_132	1	Node_1655	0.122006	32	43	16	0
Catchment_1320	1	Node_739	0.12921	32	43	16	0
Catchment_1321	1	Node_665	0.090009	32	43	16	0
Catchment_1322	1	Node_1481	0.220684	32	43	16	0
Catchment_1323	1	Node_1555	0.327439	32	43	16	0
Catchment_1324	1	Node_1451	0.008605	32	43	16	0
Catchment_1325	1	Node_1463	0.015348	32	43	16	0
Catchment_1326	1	Node_1557	0.072845	32	43	16	0
Catchment_1327	1	Node_1578	0.05323	32	43	16	0
Catchment_1328	1	Node_1590	0.18313	32	43	16	0
Catchment_1329	1	Node_1603	1.176792	32	43	16	0
Catchment_133	1	Node_337	0.111851	32	43	16	0
Catchment_1330	1	Node_1606	0.868272	32	43	16	0
Catchment_1331	1	Node_1605	0.651944	32	43	16	0
Catchment_1332	1	Node_1604	0.272013	32	43	16	0
Catchment_1333	1	Node_1474	0.026644	32	43	16	0
Catchment_1334	1	Node_1470	0.033344	32	43	16	0
Catchment_1335	1	Node_1466	0.026727	32	43	16	0
Catchment_1336	1	Node_1492	0.126015	32	43	16	0
Catchment_1337	1	Node_1506	0.22205	32	43	16	0
Catchment_1338	1	Node_1518	0.190576	32	43	16	0
Catchment_1339	1	Node_1533	0.186461	32	43	16	0
Catchment_134	1	Node_331	0.077828	32	43	16	0
Catchment_1340	1	Node_1565	0.35533	32	43	16	0
Catchment_1341	1	Node_1561	0.478439	32	43	16	0
Catchment_1342	1	Node_1568	0.136462	32	43	16	0
Catchment_1343	1	Node_1585	0.356192	32	43	16	0
Catchment_1344	1	Node_1586	0.122851	32	43	16	0
Catchment_1345	1	Node_1601	0.329311	32	43	16	0
Catchment_1346	1	Node_1583	0.058501	32	43	16	0
Catchment_1347	1	Node_1599	0.264975	32	43	16	0
Catchment_1348	1	Node_1575	0.036567	32	43	16	0
Catchment_1349	1	Node_1591	0.124125	32	43	16	0
Catchment_135	1	Node_312	0.140266	32	43	16	0
Catchment_1350	1	Node_1577	0.021625	32	43	16	0
Catchment_1351	1	Node_1581	0.080278	32	43	16	0
Catchment_1352	1	Node_1978	1.312156	32	43	16	0
Catchment_1353	1	Node_1977	0.266698	32	43	16	0
Catchment_1354	1	Node_1560	0.111791	32	43	16	0
Catchment_1355	1	Node_1541	0.067486	32	43	16	0
Catchment_1356	1	1_133	0.641083	32	43	16	0
Catchment_1357	1	Node_1570	0.124899	32	43	16	0
Catchment_1358	1	Node_1540	0.316392	32	43	16	0
Catchment_1359	1	Node_1495	0.680174	32	43	16	0
Catchment_136	1	Node_303	0.133072	32	43	16	0
Catchment_1360	1	Node_1482	0.454465	32	43	16	0
Catchment_1361	1	Node_1429	0.231921	32	43	16	0
Catchment_1362	1	Node_1979	0.500769	32	43	16	0
Catchment_1363	1	Node_1500	0.491486	32	43	16	0
Catchment_1364	1	Node_1475	0.307625	32	43	16	0
Catchment_1365	1	Node_1487	0.748838	32	43	16	0
Catchment_1366	1	Node_1412	0.539903	32	43	16	0
Catchment_1367	1	Node_1980	1.253678	32	43	16	0
Catchment_1368	1	Node_1460	0.178302	32	43	16	0
Catchment_1369	1	Node_1441	0.170388	32	43	16	0
Catchment_137	1	Node_310	0.099441	32	43	16	0
Catchment_1370	1	Node_1479	0.036407	32	43	16	0
Catchment_1371	1	Node_1471	0.078708	32	43	16	0
Catchment_1372	1	1_132	0.022958	32	43	16	0
Catchment_1373	1	Node_1478	0.015205	32	43	16	0
Catchment_1374	1	1_112	0.014139	32	43	16	0
Catchment_1375	1	Node_1531	0.106722	32	43	16	0
Catchment_1376	1	Node_1174	0.073225	32	43	16	0
Catchment_1377	1	Node_1219	0.904102	32	43	16	0
Catchment_1378	1	Node_1195	0.055286	32	43	16	0
Catchment_1379	1	Node_1216	1.211647	32	43	16	0
Catchment_138	1	Node_1728	0.18952	32	43	16	0
Catchment_1380	1	Node_1227	0.238761	32	43	16	0
Catchment_1381	1	1_121	0.18903	32	43	16	0
Catchment_1382	1	Node_1256	0.387611	32	43	16	0
Catchment_1383	1	Node_1266	0.582125	32	43	16	0
Catchment_1384	1	1_129	0.061121	32	43	16	0
Catchment_1385	1	1_130	0.014645	32	43	16	0
Catchment_1386	1	1_131	0.008113	32	43	16	0
Catchment_1387	1	Node_1230	0.091017	32	43	16	0
Catchment_1388	1	Node_1200	0.087497	32	43	16	0
Catchment_1389	1	Node_1212	0.037045	32	43	16	0
Catchment_139	1	Node_316	0.144221	32	43	16	0
Catchment_1390	1	Node_1223	0.042917	32	43	16	0
Catchment_1391	1	Node_1255	0.099354	32	43	16	0
Catchment_1392	1	Node_1233	0.03711	32	43	16	0
Catchment_1393	1	Node_1248	0.049137	32	43	16	0
Catchment_1394	1	Node_1272	0.100591	32	43	16	0
Catchment_1395	1	Node_1262	0.062944	32	43	16	0
Catchment_1396	1	Node_1246	0.027704	32	43	16	0
Catchment_1397	1	Node_1287	0.109643	32	43	16	0
Catchment_1398	1	Node_1232	0.043165	32	43	16	0
Catchment_1399	1	Node_1275	0.112366	32	43	16	0
Catchment_140	1	Node_340	0.132342	32	43	16	0
Catchment_1400	1	Node_1299	0.125253	32	43	16	0
Catchment_1401	1	Node_1397	0.516156	32	43	16	0
Catchment_1402	1	Node_1240	0.346497	32	43	16	0
Catchment_1403	1	Node_1418	0.533411	32	43	16	0
Catchment_1404	1	Node_1345	0.136563	32	43	16	0
Catchment_1405	1	Node_1358	0.288964	32	43	16	0
Catchment_1406	1	Node_1329	0.133751	32	43	16	0
Catchment_1407	1	Node_1430	0.337196	32	43	16	0
Catchment_1408	1	Node_1480	0.030908	32	43	16	0
Catchment_1409	1	Node_1496	0.052544	32	43	16	0
Catchment_141	1	Node_1716	0.169296	32	43	16	0
Catchment_1410	1	Node_1519	0.103376	32	43	16	0
Catchment_1411	1	Node_1317	0.154925	32	43	16	0
Catchment_1412	1	Node_1389	0.142815	32	43	16	0
Catchment_1413	1	Node_1427	0.033137	32	43	16	0
Catchment_1414	1	Node_1438	0.059998	32	43	16	0
Catchment_1415	1	Node_1494	0.053304	32	43	16	0
Catchment_1416	1	Node_1458	0.059162	32	43	16	0
Catchment_1417	1	Node_1507	0.025419	32	43	16	0
Catchment_1418	1	Node_1468	0.036756	32	43	16	0
Catchment_1419	1	Node_1372	0.350135	32	43	16	0
Catchment_142	1	Node_1700	0.273008	32	43	16	0
Catchment_1420	1	Node_1508	0.077325	32	43	16	0
Catchment_1421	1	Node_1413	0.023692	32	43	16	0
Catchment_1422	1	Node_1318	0.46458	32	43	16	0
Catchment_1423	1	Node_1326	0.756419	32	43	16	0
Catchment_1424	1	Node_1308	0.541771	32	43	16	0
Catchment_1425	1	Node_1365	0.518415	32	43	16	0
Catchment_1426	1	Node_1401	0.065728	32	43	16	0
Catchment_1427	1	Node_1398	0.026577	32	43	16	0
Catchment_1428	1	Node_1420	0.076777	32	43	16	0
Catchment_1429	1	Node_1375	0.171269	32	43	16	0
Catchment_143	1	Node_1692	0.192689	32	43	16	0
Catchment_1430	1	Node_1419	0.142728	32	43	16	0
Catchment_1431	1	Node_1431	0.031019	32	43	16	0
Catchment_1432	1	Node_1282	0.277935	32	43	16	0
Catchment_1433	1	Node_1387	0.095351	32	43	16	0
Catchment_1434	1	Node_1410	0.02333	32	43	16	0
Catchment_1435	1	Node_1392	0.019821	32	43	16	0
Catchment_1436	1	1_103	0.106081	32	43	16	0
Catchment_1437	1	Node_853	0.179948	32	43	16	0
Catchment_1438	1	Node_2022	2.328432	32	43	16	0
Catchment_1439	1	1_106	0.311332	32	43	16	0
Catchment_144	1	Node_1688	0.075601	32	43	16	0
Catchment_1440	1	1_119	0.269558	32	43	16	0
Catchment_1441	1	Node_1040	0.3077	32	43	16	0
Catchment_1442	1	1_113	0.259072	32	43	16	0
Catchment_1443	1	Node_1032	0.145156	32	43	16	0
Catchment_1444	1	Node_1087	0.300834	32	43	16	0
Catchment_1445	1	Node_1038	0.108246	32	43	16	0
Catchment_1446	1	Node_1007	0.613577	32	43	16	0
Catchment_1447	1	Node_2023	1.07282	32	43	16	0
Catchment_1448	1	Node_911	0.499729	32	43	16	0
Catchment_1449	1	Node_904	0.346031	32	43	16	0
Catchment_145	1	Node_1690	0.212197	32	43	16	0
Catchment_1450	1	1_116	0.128657	32	43	16	0
Catchment_1451	1	Node_1118	0.305452	32	43	16	0
Catchment_1452	1	1_111	0.271946	32	43	16	0
Catchment_1453	1	1_115	0.266619	32	43	16	0
Catchment_1454	1	1_118	0.235698	32	43	16	0
Catchment_1455	1	Node_953	0.035957	32	43	16	0
Catchment_1456	1	1_70	0.012823	32	43	16	0
Catchment_1457	1	1_66	0.016863	32	43	16	0
Catchment_1458	1	Node_907	0.206017	32	43	16	0
Catchment_1459	1	Node_938	0.106863	32	43	16	0
Catchment_146	1	Node_1679	0.099898	32	43	16	0
Catchment_1460	1	Node_942	0.071082	32	43	16	0
Catchment_1461	1	Node_1997	0.105621	32	43	16	0
Catchment_1462	1	1_61	0.132632	32	43	16	0
Catchment_1463	1	1_63	0.117408	32	43	16	0
Catchment_1464	1	Node_2017	0.05594	32	43	16	0
Catchment_1465	1	1_60	0.103997	32	43	16	0
Catchment_1466	1	1_64	0.086139	32	43	16	0
Catchment_1467	1	1_77	0.12877	32	43	16	0
Catchment_1468	1	1_90	0.090005	32	43	16	0
Catchment_1469	1	1_80	0.126239	32	43	16	0
Catchment_147	1	Node_1674	0.461137	32	43	16	0
Catchment_1470	1	1_94	0.120537	32	43	16	0
Catchment_1471	1	1_67	0.108095	32	43	16	0
Catchment_1472	1	Node_912	0.082309	32	43	16	0
Catchment_1473	1	Node_948	0.052585	32	43	16	0
Catchment_1474	1	Node_867	0.146961	32	43	16	0
Catchment_1475	1	1_96	0.114367	32	43	16	0
Catchment_1476	1	Node_879	0.067031	32	43	16	0
Catchment_1477	1	1_95	0.034089	32	43	16	0
Catchment_1478	1	1_88	0.05718	32	43	16	0
Catchment_1479	1	1_62	0.061482	32	43	16	0
Catchment_148	1	Node_1680	0.358014	32	43	16	0
Catchment_1480	1	1_74	0.064929	32	43	16	0
Catchment_1481	1	1_68	0.022822	32	43	16	0
Catchment_1482	1	1_98	0.023765	32	43	16	0
Catchment_1483	1	1_109	0.05272	32	43	16	0
Catchment_1484	1	1_108	0.05632	32	43	16	0
Catchment_1485	1	1_91	0.048631	32	43	16	0
Catchment_1486	1	1_92	0.036045	32	43	16	0
Catchment_1487	1	1_89	0.156924	32	43	16	0
Catchment_1488	1	1_87	0.189156	32	43	16	0
Catchment_1489	1	Node_902	0.089496	32	43	16	0
Catchment_149	1	Node_170	0.085127	32	43	16	0
Catchment_1490	1	Node_905	0.110822	32	43	16	0
Catchment_1491	1	1_110	0.082984	32	43	16	0
Catchment_1492	1	1_97	0.077532	32	43	16	0
Catchment_1493	1	1_86	0.176399	32	43	16	0
Catchment_1494	1	1_85	0.112646	32	43	16	0
Catchment_1495	1	1_71	0.25747	32	43	16	0
Catchment_1496	1	Node_952	0.20288	32	43	16	0
Catchment_1497	1	Node_2021	0.198433	32	43	16	0
Catchment_1498	1	Node_945	0.087465	32	43	16	0
Catchment_1499	1	Node_2020	0.040012	32	43	16	0
Catchment_150	1	Node_415	0.335002	32	43	16	0
Catchment_1500	1	Node_2016	0.32157	32	43	16	0
Catchment_1501	1	Node_917	0.057929	32	43	16	0
Catchment_1502	1	Node_1925	0.045989	32	43	16	0
Catchment_1503	1	1_102	0.105524	32	43	16	0
Catchment_1504	1	1_105	0.098956	32	43	16	0
Catchment_1505	1	1_114	0.058359	32	43	16	0
Catchment_1506	1	Node_932	0.17523	32	43	16	0
Catchment_1507	1	Node_897	0.069378	32	43	16	0
Catchment_1508	1	Node_1088	0.072928	32	43	16	0
Catchment_1509	1	Node_1064	0.062045	32	43	16	0
Catchment_151	1	Node_350	0.061805	32	43	16	0
Catchment_1510	1	Node_1066	0.026721	32	43	16	0
Catchment_1511	1	Node_1079	0.038672	32	43	16	0
Catchment_1512	1	1_75	0.029055	32	43	16	0
Catchment_1513	1	1_65	0.161515	32	43	16	0
Catchment_1514	1	Node_1051	0.06087	32	43	16	0
Catchment_1515	1	Node_2015	0.088217	32	43	16	0
Catchment_1516	1	Node_1921	0.168383	32	43	16	0
Catchment_1517	1	1_117	0.09363	32	43	16	0
Catchment_1518	1	Node_1023	0.080627	32	43	16	0
Catchment_1519	1	Node_1022	0.051341	32	43	16	0
Catchment_152	1	Node_333	0.162773	32	43	16	0
Catchment_1520	1	Node_1922	0.067247	32	43	16	0
Catchment_1521	1	Node_1920	0.122925	32	43	16	0
Catchment_1522	1	1_100	0.095378	32	43	16	0
Catchment_1523	1	1_93	0.078428	32	43	16	0
Catchment_1524	1	Node_2019	0.106843	32	43	16	0
Catchment_1525	1	Node_1045	0.046828	32	43	16	0
Catchment_1526	1	Node_1060	0.106341	32	43	16	0
Catchment_1527	1	Node_1116	0.091253	32	43	16	0
Catchment_1528	1	Node_1076	0.066511	32	43	16	0
Catchment_1529	1	Node_1924	0.14474	32	43	16	0
Catchment_153	1	Node_349	0.367937	32	43	16	0
Catchment_1530	1	Node_2018	0.215035	32	43	16	0
Catchment_1531	1	Node_1923	0.076862	32	43	16	0
Catchment_1532	1	1_83	0.119193	32	43	16	0
Catchment_1533	1	Node_892	0.033885	32	43	16	0
Catchment_1534	1	Node_919	0.094655	32	43	16	0
Catchment_1535	1	Node_1053	0.059334	32	43	16	0
Catchment_1536	1	Node_1083	0.025002	32	43	16	0
Catchment_1537	1	Node_1093	0.079087	32	43	16	0
Catchment_1538	1	Node_1096	0.140727	32	43	16	0
Catchment_1539	1	Node_1043	0.057504	32	43	16	0
Catchment_154	1	Node_1739	0.348443	32	43	16	0
Catchment_1540	1	Node_1030	0.064801	32	43	16	0
Catchment_1541	1	Node_1009	0.031024	32	43	16	0
Catchment_1542	1	Node_1018	0.048819	32	43	16	0
Catchment_1543	1	Node_989	0.207583	32	43	16	0
Catchment_1544	1	Node_990	0.464047	32	43	16	0
Catchment_1545	1	Node_910	0.320106	32	43	16	0
Catchment_1546	1	Node_1102	0.177201	32	43	16	0
Catchment_1547	1	Node_935	0.257146	32	43	16	0