[TITLE]
;;Project Title/Notes
1D sewer network only

[OPTIONS]
;;Option             Value
FLOW_UNITS           CMS
INFILTRATION         HORTON
FLOW_ROUTING         DYNWAVE
LINK_OFFSETS         ELEVATION
MIN_SLOPE            0
ALLOW_PONDING        NO
SKIP_STEADY_STATE    NO

START_DATE           05/08/2016
START_TIME           14:00:00
REPORT_START_DATE    05/08/2016
REPORT_START_TIME    14:00:00
END_DATE             05/08/2016
END_TIME             17:45:00
SWEEP_START          01/01
SWEEP_END            12/31
DRY_DAYS             0
REPORT_STEP          00:00:15
WET_STEP             00:00:01
DRY_STEP             00:00:01
ROUTING_STEP         0:00:01 

INERTIAL_DAMPING     PARTIAL
NORMAL_FLOW_LIMITED  BOTH
FORCE_MAIN_EQUATION  H-W
VARIABLE_STEP        0.75
LENGTHENING_STEP     0
MIN_SURFAREA         1.14
MAX_TRIALS           8
HEAD_TOLERANCE       0.0015
SYS_FLOW_TOL         5
LAT_FLOW_TOL         5
MINIMUM_STEP         0.5
THREADS              1

[EVAPORATION]
;;Data Source    Parameters
;;-------------- ----------------
CONSTANT         0.0
DRY_ONLY         NO

[RAINGAGES]
;;Name           Format    Interval SCF      Source    
;;-------------- --------- ------ ------ ----------
1                INTENSITY 0:01     1.0      TIMESERIES 08_maio_2016_14_04

[SUBCATCHMENTS]
;;Name           Rain Gage        Outlet           Area     %Imperv  Width    %Slope   CurbLen  SnowPack        
;;-------------- ---------------- ---------------- -------- -------- -------- -------- -------- ----------------
; Name Raingage Outlet Area %Imperv Width Slope Clength
storm_100        1                n_200            0.162000 57.93    54.700000 19.000000 0.000000                 
storm_101        1                n_704            0.131000 52.86    43.700000 20.000000 0.000000                 
storm_103        1                n_402            0.423000 65.77    77.300000 16.000000 0.000000                 
storm_104        1                n_403            0.224000 59.26    128.100000 12.000000 0.000000                 
storm_105        1                n_1              0.174000 50.00    57.600000 9.000000 0.000000                 
storm_106        1                n_562            0.155971 53.23    31.800000 10.000000 0.000000                 
storm_107        1                n_570            1.944548 69.00    174.100000 13.000000 0.000000                 
storm_108        1                n_922            1.044000 81.85    184.600000 15.000000 0.000000                 
storm_109        1                Gate1            0.183000 43.00    59.400000 12.000000 0.000000                 
storm_110        1                n_818            0.3721000 65.59    143.300000 18.000000 0.000000                 
storm_111        1                n_828            0.5640000 65.03    147.900000 16.000000 0.000000                 
storm_112        1                n_913            0.2270000 59.04    85.900000 20.000000 0.000000                 
storm_113        1                n_914            0.304000 64.49    82.400000 20.000000 0.000000                 
storm_114        1                n_108            0.492000 65.67    81.000000 21.000000 0.000000                 
storm_115        1                n_933            0.243000 69.87    78.600000 18.000000 0.000000                 
storm_117        1                n_109            0.884000 60.60    143.700000 25.000000 0.000000                 
storm_118        1                n_110            0.444000 52.89    121.700000 21.000000 0.000000                 
storm_119        1                n_121            1.452000 63.57    312.300000 32.000000 0.000000                 
storm_120        1                n_414            0.193007 55.98    85.800000 24.000000 0.000000                 
storm_121        1                n_413            0.1074000 52.04    58.000000 18.000000 0.000000                 
storm_169        1                n_808            0.335009 65.78    122.400000 18.000000 0.000000                 
storm_170        1                n_196            0.280000 60.66    109.100000 21.000000 0.000000                 
storm_171        1                n_911            0.023000 69.92    62.600000 25.000000 0.000000                 
storm_172        1                n_911            0.030000 70.20    70.200000 36.000000 0.000000                 
storm_183        1                n_856            0.172000 56.31    74.200000 23.000000 0.000000                 
storm_200        1                n_242            0.172000 77.77    134.200000 21.000000 0.000000                 
storm_201        1                n_390            0.251000 39.70    89.100000 22.000000 0.000000                 
storm_202        1                n_884            0.105000 56.11    64.000000 28.000000 0.000000                 
storm_203        1                n_940            1.043000 19.873000 229.100000 21.000000 0.000000                 
storm_204        1                n_208            0.062000 30.65    75.000000 24.000000 0.000000                 
storm_205        1                n_385            0.172000 59.12    80.000000 27.000000 0.000000                 
storm_206        1                n_198            0.430000 57.42    95.800000 18.000000 0.000000                 
storm_207        1                n_67             0.392000 61.69    77.300000 17.000000 0.000000                 
storm_208        1                n_899            0.352000 65.85    69.600000 18.000000 0.000000                 
storm_209        1                n_992            0.071000 69.60    39.600000 9.000000 0.000000                 
storm_210        1                n_111            0.1096001 64.78    44.400000 12.000000 0.000000                 
storm_211        1                n_120            0.480000 74.35    80.800000 22.000000 0.000000                 
storm_212        1                n_943            0.419000 74.33    66.200000 16.000000 0.000000                 
storm_248        1                n_417            0.194998 64.03    54.600000 20.000000 0.000000                 
storm_249        1                n_418            0.133000 70.55    40.000000 20.000000 0.000000                 
storm_250        1                n_76             0.108000 69.95    49.500000 20.000000 0.000000                 
storm_251        1                n_897            0.243000 53.76    94.300000 18.000000 0.000000                 
storm_252        1                n_549            0.167000 52.99    56.300000 26.000000 0.000000                 
storm_253        1                n_112            0.1029000 69.07    65.700000 14.000000 0.000000                 
storm_254        1                n_114            0.1040000 76.43    78.500000 18.000000 0.000000                 
storm_255        1                n_936            0.150998 74.38    57.700000 13.000000 0.000000                 
storm_269        1                n_845            0.186000 61.73    67.800000 23.000000 0.000000                 
storm_293        1                n_155            0.096000 59.77    50.100000 21.000000 0.000000                 
storm_298        1                n_921            0.551000 78.92    157.100000 15.000000 0.000000                 
storm_299        1                n_999            0.171000 79.12    83.500000 12.000000 0.000000                 
storm_300        1                n_1000           0.069000 63.80    41.700000 21.000000 0.000000                 
storm_301        1                n_510            0.068000 58.08    45.600000 23.000000 0.000000                 
storm_302        1                n_154            0.170000 55.76    81.600000 26.000000 0.000000                 
storm_303        1                n_763            0.055000 53.21    53.000000 13.000000 0.000000                 
storm_304        1                n_116            0.1010000 52.39    46.600000 30.000000 0.000000                 
storm_305        1                n_92             0.181000 56.67    90.500000 9.000000 0.000000                 
storm_306        1                n_411            0.221000 72.61    50.100000 18.000000 0.000000                 
storm_307        1                n_927            0.099000 66.06    39.700000 18.000000 0.000000                 
storm_308        1                n_927            0.153000 55.36    95.400000 22.000000 0.000000                 
storm_309        1                n_622            0.150998 56.87    56.600000 21.000000 0.000000                 
storm_310        1                n_630            0.113000 65.47    42.700000 20.000000 0.000000                 
storm_311        1                n_416            0.047000 60.00    42.100000 12.000000 0.000000                 
storm_312        1                n_541            0.746545 62.33    258.100000 11.000000 0.000000                 
storm_313        1                n_934            0.256000 62.62    60.000000 8.000000 0.000000                 
storm_314        1                n_600            0.051000 50.10    31.600000 8.000000 0.000000                 
storm_315        1                n_107            0.176000 70.27    50.000000 18.000000 0.000000                 
storm_410        1                n_986            0.274000 67.48    103.600000 9.000000 0.000000                 
storm_412        1                n_996            0.707000 73.25    199.500000 17.000000 0.000000                 
storm_413        1                n_997            0.222000 79.89    77.900000 12.000000 0.000000                 
storm_415        1                n_998            0.129000 66.38    42.100000 13.000000 0.000000                 
storm_416        1                n_23             0.099000 70.44    47.800000 18.000000 0.000000                 
storm_417        1                n_220            0.248000 68.01    76.000000 26.000000 0.000000                 
storm_418        1                n_501            0.013000 49.00    43.000000 22.000000 0.000000                 
storm_419        1                n_508            0.108000 41.10    43.700000 23.000000 0.000000                 
storm_420        1                n_932            0.178000 53.55    50.600000 14.000000 0.000000                 
storm_421        1                n_526            0.183000 67.23    55.400000 26.000000 0.000000                 
storm_422        1                n_1001           0.318000 59.49    106.600000 14.000000 0.000000                 
storm_423        1                n_535            0.086000 60.08    57.500000 10.000000 0.000000                 
storm_424        1                n_199            0.008000 60.00    14.500000 12.000000 0.000000                 
storm_425        1                n_104            0.118000 58.20    73.700000 23.000000 0.000000                 
storm_426        1                n_638            0.120000 63.49    34.900000 16.000000 0.000000                 
storm_427        1                n_195            0.038000 58.93    23.400000 15.000000 0.000000                 
storm_428        1                n_404            0.115000 64.77    34.400000 10.000000 0.000000                 
storm_429        1                n_405            0.112000 57.05    33.700000 10.000000 0.000000                 
storm_430        1                n_407            0.105000 47.05    32.900000 17.000000 0.000000                 
storm_431        1                n_93             0.127000 47.14    36.100000 7.000000 0.000000                 
storm_432        1                n_600            0.028000 59.43    24.900000 6.000000 0.000000                 
storm_433        1                n_600            0.034000 63.82    30.800000 7.000000 0.000000                 
storm_434        1                n_910            0.101000 70.30    39.800000 20.000000 0.000000                 
storm_437        1                n_942            0.035000 60.82    30.400000 7.000000 0.000000                 
storm_438        1                n_118            0.057000 42.16    27.800000 4.000000 0.000000                 
storm_481        1                n_153            0.026000 82.56    33.000000 15.000000 0.000000                 
storm_482        1                n_836            0.144000 65.42    64.900000 25.000000 0.000000                 
storm_483        1                n_995            0.463000 87.91    117.500000 13.000000 0.000000                 
storm_484        1                n_541            0.022000 35.38    29.400000 16.000000 0.000000                 
storm_81         1                n_985            0.228000 88.62    83.000000 12.000000 0.000000                 
storm_816        1                n_500b           0.166000 59.91    43.500000 27.000000 0.000000                 
storm_817        1                n_237            0.054000 60.00    29.300000 7.000000 0.000000                 
storm_818        1                n_239            0.102000 67.16    37.400000 14.000000 0.000000                 
storm_819        1                n_245            0.115000 66.32    35.900000 19.000000 0.000000                 
storm_820        1                n_13             0.054999 66.52    42.600000 19.000000 0.000000                 
storm_821        1                n_149            0.080000 77.90    43.000000 21.000000 0.000000                 
storm_822        1                n_152            0.086000 79.97    47.800000 20.000000 0.000000                 
storm_823        1                n_156            0.103000 49.08    49.300000 25.000000 0.000000                 
storm_824        1                n_152            0.014000 60.00    18.900000 20.000000 0.000000                 
storm_825        1                n_719            0.193000 58.95    49.600000 15.000000 0.000000                 
storm_826        1                n_2              0.007000 60.00    16.700000 13.000000 0.000000                 
storm_827        1                n_56             0.037000 65.32    23.600000 19.000000 0.000000                 
storm_828        1                n_115            0.051000 68.55    40.700000 27.000000 0.000000                 
storm_829        1                n_941            0.196000 49.52    58.900000 3.000000 0.000000                 
storm_830        1                n_940            0.049999 62.98    33.000000 9.000000 0.000000                 
storm_831        1                n_99             0.041000 65.15    21.600000 21.000000 0.000000                 
storm_832        1                n_730            0.131002 51.17    47.200000 25.000000 0.000000                 
storm_833        1                n_687            0.010000 60.76    18.800000 6.000000 0.000000                 
storm_834        1                n_929            0.191000 54.23    37.600000 9.000000 0.000000                 
storm_835        1                n_928            0.077000 59.80    33.900000 20.000000 0.000000                 
storm_836        1                n_659            0.065000 70.54    29.100000 13.000000 0.000000                 
storm_837        1                n_616            0.069000 62.87    37.400000 12.000000 0.000000                 
storm_838        1                n_926            0.084000 70.49    36.100000 14.000000 0.000000                 
storm_839        1                n_612            0.035000 62.893000 25.600000 9.000000 0.000000                 
storm_840        1                n_925            0.110999 72.85    52.300000 14.000000 0.000000                 
storm_841        1                n_649            0.081000 65.11    38.200000 13.000000 0.000000                 
storm_842        1                n_410            0.280000 65.57    114.200000 12.000000 0.000000                 
storm_843        1                n_408            0.051000 48.58    25.100000 18.000000 0.000000                 
storm_844        1                n_113            0.415233 59.11    89.000000 9.000000 0.000000                 
storm_845        1                n_554            0.030000 59.31    36.000000 7.000000 0.000000                 
storm_846        1                n_924            0.053000 60.79    45.300000 9.000000 0.000000                 
storm_847        1                n_791            0.022000 64.92    38.100000 9.000000 0.000000                 
storm_848        1                n_106            0.104000 70.06    37.600000 26.000000 0.000000                 
storm_860        1                n_150            0.057000 63.78    32.000000 14.000000 0.000000                 
storm_878        1                n_938            0.022000 54.55    39.400000 33.000000 0.000000                 
storm_88         1                n_392            0.414000 32.33    126.700000 25.000000 0.000000                 
storm_89         1                n_238            0.505000 30.33    113.700000 24.000000 0.000000                 
storm_90         1                n_387            0.163000 35.76    92.400000 29.000000 0.000000                 
storm_905        1                n_221            0.076000 65.31    29.100000 23.000000 0.000000                 
storm_906        1                n_747            0.011000 60.00    18.200000 9.000000 0.000000                 
storm_907        1                n_409            0.071000 55.05    28.300000 17.000000 0.000000                 
storm_908        1                n_1003           0.103000 64.47    48.100000 10.000000 0.000000                 
storm_91         1                n_388            0.080000 32.52    81.500000 29.000000 0.000000                 
storm_92         1                n_389            0.128000 30.64    68.300000 29.000000 0.000000                 
storm_93         1                n_864            0.391000 42.70    71.000000 23.000000 0.000000                 
storm_94         1                n_874            0.343000 43.60    71.200000 24.000000 0.000000                 
storm_95         1                n_930            0.466000 63.39    82.800000 17.000000 0.000000                 
storm_96         1                n_931            0.366000 63.72    68.500000 14.000000 0.000000                 
storm_97         1                n_755            0.084    77.95    120.400000 19.000000 0.000000                 
storm_98         1                n_96             0.064997 67.05    104.600000 14.000000 0.000000                 
storm_99         1                n_386            0.220000 32.71    92.200000 27.000000 0.000000                 

[SUBAREAS]
;;Subcatchment   N-Imperv   N-Perv     S-Imperv   S-Perv     PctZero    RouteTo    PctRouted 
;;-------------- ---------- ---------- ---------- ---------- ---------- ---------- ----------
storm_100        0.02       0.3        1.8        5.8        0.000000   PERVIOUS   45        
storm_101        0.014679   0.25000000 1.8        5.8        0.000000   PERVIOUS   45        
storm_103        0.015000   0.25000000 1.8        5.8        0.000000   PERVIOUS   40        
storm_104        0.015000   0.23000000 1.8        5.8        0.000000   PERVIOUS   40        
storm_105        0.014430   0.25000000 1.8        5.8        0.000000   PERVIOUS   35        
storm_106        0.015000   0.25000000 1.8        5.8        0.000000   PERVIOUS   40        
storm_107        0.015000   0.23000000 1.8        5.8        0.000000   PERVIOUS   40        
storm_108        0.015000   0.23000000 1.8        5.8        0.000000   PERVIOUS   30        
storm_109        0.01500000 0.025000   1.8        5.8        0.000000   PERVIOUS   35        
storm_110        0.015000   0.23000000 1.8        5.8        0.000000   PERVIOUS   35        
storm_111        0.015000   0.23000000 1.8        5.8        0.000000   PERVIOUS   35        
storm_112        0.011025   0.23000000 1.8        5.8        0.000000   PERVIOUS   40        
storm_113        0.014422   0.23000000 1.8        5.8        0.000000   PERVIOUS   35        
storm_114        0.014395   0.23000000 1.8        5.8        0.000000   PERVIOUS   35        
storm_115        0.015000   0.23000000 1.8        5.8        0.000000   PERVIOUS   35        
storm_117        0.014714   0.23000000 1.8        5.8        0.000000   PERVIOUS   35        
storm_118        0.014858   0.23000000 1.8        5.8        0.000000   PERVIOUS   35        
storm_119        0.014910   0.23000000 1.8        5.8        0.000000   PERVIOUS   35        
storm_120        0.014906   0.23000000 1.8        5.8        0.000000   PERVIOUS   40        
storm_121        0.015000   0.23000000 1.8        5.8        0.000000   PERVIOUS   40        
storm_169        0.014947   0.23000000 1.8        5.8        0.000000   PERVIOUS   35        
storm_170        0.015000   0.23000000 1.8        5.8        0.000000   PERVIOUS   38        
storm_171        0.014356   0.23000000 1.8        5.8        0.000000   PERVIOUS   35        
storm_172        0.013777   0.23000000 1.8        5.8        0.000000   PERVIOUS   35        
storm_183        0.014998   0.23000000 1.8        5.8        0.000000   PERVIOUS   40        
storm_200        0.015000   0.23000000 1.8        5.8        0.000000   PERVIOUS   25        
storm_201        0.024      0.3        1.8        5.8        0.000000   PERVIOUS   25        
storm_202        0.015000   0.23000000 1.8        5.8        0.000000   PERVIOUS   40        
storm_203        0.014782   0.23025000 1.8        5.8        0.000000   PERVIOUS   35        
storm_204        0.02       0.3        1.8        5.8        0.000000   PERVIOUS   25        
storm_205        0.02       0.3        1.8        5.8        0.000000   PERVIOUS   25        
storm_206        0.02       0.3        1.8        5.8        0.000000   PERVIOUS   40        
storm_207        0.015000   0.23000000 1.8        5.8        0.000000   PERVIOUS   40        
storm_208        0.02       0.3        1.8        5.8        0.000000   PERVIOUS   35        
storm_209        0.013585   0.23000000 1.8        5.8        0.000000   PERVIOUS   40        
storm_210        0.014681   0.23025000 1.8        5.8        0.000000   PERVIOUS   35        
storm_211        0.014179   0.23000000 1.8        5.8        0.000000   PERVIOUS   35        
storm_212        0.014102   0.23000000 1.8        5.8        0.000000   PERVIOUS   35        
storm_248        0.014708   0.23000000 1.8        5.8        0.000000   OUTLET    
storm_249        0.015000   0.23000000 1.8        5.8        0.000000   PERVIOUS   35        
storm_250        0.015000   0.23000000 1.8        5.8        0.000000   PERVIOUS   40        
storm_251        0.02       0.3        1.8        5.8        0.000000   PERVIOUS   40        
storm_252        0.015000   0.23000000 1.8        5.8        0.000000   PERVIOUS   40        
storm_253        0.014998   0.23000000 1.8        5.8        0.000000   PERVIOUS   35        
storm_254        0.015000   0.23000000 1.8        5.8        0.000000   PERVIOUS   35        
storm_255        0.014213   0.23000000 1.8        5.8        0.000000   PERVIOUS   40        
storm_269        0.014995   0.23000000 1.8        5.8        0.000000   PERVIOUS   40        
storm_293        0.015000   0.23000000 1.8        5.8        0.000000   PERVIOUS   35        
storm_298        0.02       0.3        1.5        3          0.000000   PERVIOUS   5         
storm_299        0.02       0.3        1.5        3          0.000000   PERVIOUS   5         
storm_300        0.015000   0.23000000 1.8        5.8        0.000000   PERVIOUS   30        
storm_301        0.015000   0.23000000 1.8        5.8        0.000000   PERVIOUS   35        
storm_302        0.015000   0.23000000 1.8        5.8        0.000000   PERVIOUS   35        
storm_303        0.013915   0.23000000 1.8        5.8        0.000000   PERVIOUS   25        
storm_304        0.015000   0.23000000 1.8        5.8        0.000000   PERVIOUS   35        
storm_305        0.02       0.3        1.5        3          0.000000   PERVIOUS   35        
storm_306        0.02       0.3        1.8        5.8        0.000000   PERVIOUS   45        
storm_307        0.013969   0.2300000  1.8        5.8        0.000000   PERVIOUS   35        
storm_308        0.02       0.3        1.8        5.8        0.000000   PERVIOUS   30        
storm_309        0.02       0.3        1.8        5.8        0.000000   PERVIOUS   15        
storm_310        0.02       0.3        1.8        5.8        0.000000   PERVIOUS   15        
storm_311        0.015000   0.23000000 1.8        5.8        0.000000   PERVIOUS   35        
storm_312        0.015000   0.23000000 1.8        5.8        0.000000   PERVIOUS   35        
storm_313        0.013216   0.23000000 1.8        5.8        0.000000   PERVIOUS   35        
storm_314        0.015000   0.23000000 1.8        5.8        0.000000   PERVIOUS   35        
storm_315        0.013998   0.23000000 1.8        5.8        0.000000   PERVIOUS   35        
storm_410        0.015000   0.23000000 1.8        5.8        0.0        PERVIOUS   25        
storm_412        0.02       0.3        1.5        4          0.0        PERVIOUS   5         
storm_413        0.02       0.3        1.8        4          0.000000   PERVIOUS   25        
storm_415        0.02       0.3        1.5        3          0.000000   PERVIOUS   5         
storm_416        0.015000   0.23000000 1.8        5.8        0.000000   PERVIOUS   10        
storm_417        0.015000   0.23000000 1.8        5.8        0.000000   PERVIOUS   30        
storm_418        0.015000   0.23000000 1.8        5.8        0.000000   PERVIOUS   35        
storm_419        0.015000   0.23000000 1.8        5.8        0.000000   PERVIOUS   35        
storm_420        0.015000   0.23000000 1.8        5.8        0.000000   PERVIOUS   35        
storm_421        0.02       0.3        1.8        5.8        0.000000   PERVIOUS   35        
storm_422        0.02       0.3        1.8        5.8        0.000000   PERVIOUS   35        
storm_423        0.02       0.3        1.8        4          0.000000   PERVIOUS   35        
storm_424        0.015000   0.23000000 1.8        5.8        0.000000   PERVIOUS   35        
storm_425        0.015000   0.23000000 1.8        5.8        0.000000   PERVIOUS   10        
storm_426        0.02       0.3        1.8        5.8        0.000000   PERVIOUS   15        
storm_427        0.013482   0.23000000 1.8        5.8        0.000000   PERVIOUS   35        
storm_428        0.015000   0.23000000 1.8        5.8        0.000000   PERVIOUS   40        
storm_429        0.015000   0.23000000 1.8        5.8        0.000000   PERVIOUS   35        
storm_430        0.015000   0.23000000 1.8        5.8        0.000000   PERVIOUS   35        
storm_431        0.015000   0.23000000 1.8        5.8        0.000000   PERVIOUS   40        
storm_432        0.015000   0.23000000 1.8        5.8        0.000000   PERVIOUS   35        
storm_433        0.015000   0.23000000 1.8        5.8        0.000000   PERVIOUS   35        
storm_434        0.013674   0.23000000 1.8        5.8        0.000000   PERVIOUS   35        
storm_437        0.013070   0.23000000 1.8        5.8        0.000000   PERVIOUS   35        
storm_438        0.014189   0.23000000 1.8        5.8        0.000000   PERVIOUS   35        
storm_481        0.015000   0.23000000 1.8        5.8        0.000000   PERVIOUS   35        
storm_482        0.014759   0.23000000 1.8        5.8        0.000000   PERVIOUS   40        
storm_483        0.02       0.30000    1.5        3          0.0        PERVIOUS   10        
storm_484        0.013000   0.230020000 1.8        5.8        0.000000   PERVIOUS   35        
storm_81         0.02       0.3        1.8        5.8        0.0        PERVIOUS   25        
storm_816        0.015000   0.23000000 1.8        5.8        0.000000   PERVIOUS   35        
storm_817        0.015000   0.23000000 1.8        5.8        0.000000   PERVIOUS   35        
storm_818        0.015000   0.23000000 1.8        5.8        0.000000   PERVIOUS   35        
storm_819        0.015000   0.23000000 1.8        5.8        0.000000   PERVIOUS   35        
storm_820        0.015000   0.23025000 1.8        5.8        0.000000   PERVIOUS   35        
storm_821        0.015000   0.23000000 1.8        5.8        0.000000   PERVIOUS   35        
storm_822        0.015000   0.23000000 1.8        5.8        0.000000   PERVIOUS   35        
storm_823        0.015000   0.23000000 1.8        5.8        0.000000   PERVIOUS   35        
storm_824        0.015000   0.23000000 1.8        5.8        0.000000   PERVIOUS   35        
storm_825        0.02       0.3        1.8        3.8        0.000000   PERVIOUS   30        
storm_826        0.015000   0.23000000 1.8        5.8        0.000000   PERVIOUS   35        
storm_827        0.015000   0.23000000 1.8        5.8        0.000000   PERVIOUS   35        
storm_828        0.015000   0.23000000 1.8        5.8        0.000000   PERVIOUS   35        
storm_829        0.013701   0.23000000 1.8        5.8        0.000000   PERVIOUS   35        
storm_830        0.013153   0.02300000 1.8        5.8        0.000000   PERVIOUS   45        
storm_831        0.015000   0.2300000  1.8        5.8        0.000000   OUTLET    
storm_832        0.02       0.3        1.8        5.8        0.000000   PERVIOUS   40        
storm_833        0.013030   0.23000000 1.8        5.8        0.000000   PERVIOUS   35        
storm_834        0.02       0.3        1.8        5.8        0.000000   PERVIOUS   40        
storm_835        0.013777   0.23000000 1.8        5.8        0.000000   PERVIOUS   45        
storm_836        0.014354   0.23000000 1.8        5.8        0.000000   PERVIOUS   40        