[TITLE]
;;Project Title/Notes

[OPTIONS]
;;Option             Value
FLOW_UNITS           CMS
INFILTRATION         HORTON
FLOW_ROUTING         DYNWAVE
LINK_OFFSETS         DEPTH
MIN_SLOPE            0
ALLOW_PONDING        YES
SKIP_STEADY_STATE    NO

START_DATE           01/01/2020
START_TIME           00:00:00
REPORT_START_DATE    01/01/2020
REPORT_START_TIME    00:00:00
END_DATE             01/01/2020
END_TIME             03:00:00
SWEEP_START          01/01
SWEEP_END            01/01
DRY_DAYS             0
REPORT_STEP          00:01:00
WET_STEP             00:05:00
DRY_STEP             01:00:00
ROUTING_STEP         0.06

INERTIAL_DAMPING     PARTIAL
NORMAL_FLOW_LIMITED  BOTH
FORCE_MAIN_EQUATION  H-W
VARIABLE_STEP        0.75
LENGTHENING_STEP     0
MIN_SURFAREA         1.14
MAX_TRIALS           8
HEAD_TOLERANCE       0.0015
SYS_FLOW_TOL         5
LAT_FLOW_TOL         5
MINIMUM_STEP         0.5
THREADS              4

[EVAPORATION]
;;Data Source    Parameters
;;-------------- ----------------
CONSTANT         0
DRY_ONLY         NO

[RAINGAGES]
;;Name           Format    Interval SCF      Source    
;;-------------- --------- ------ ------ ----------
1                INTENSITY 00:01    1        TIMESERIES Tr100_D135      

[SUBCATCHMENTS]
;;Name           Rain Gage        Outlet           Area     %Imperv  Width    %Slope   CurbLen  SnowPack        
;;-------------- ---------------- ---------------- -------- -------- -------- -------- -------- ----------------
Catchment_1000   1                1_596            0.12811424 4        20.575523 6.634674 0                        
Catchment_1001   1                1117             0.34640331 4        33.851375 6.634674 0                        
Catchment_1002   1                1_542            0.205092753 4        26.038434 6.168979 0                        
Catchment_1003   1                1_536            0.188597357 4        24.977738 6.168979 0                        
Catchment_1004   1                340              0.382968104 4        35.593164 6.160386 0                        
Catchment_1005   1                275              0.341729614 4        33.615474 3.263111 0                        
Catchment_1006   1                279              0.190521821 4        25.104852 3.009459 0                        
Catchment_1007   1                272              0.036564794 4        10.99808 2.279993 0                        
Catchment_1008   1                278              0.327158681 4        32.897623 3.764903 0                        
Catchment_1009   1                270              0.065431736 4        14.712264 12.272923 0                        
Catchment_1010   1                271              0.108869612 4        18.9655  12.888359 0                        
Catchment_1011   1                273              0.091549446 4        17.389491 13.745763 0                        
Catchment_1012   1                274              0.043437876 4        11.968268 12.865021 0                        
Catchment_1013   1                277              0.038489257 4        11.283792 14.413501 0                        
Catchment_1014   1                276              0.024055785 4        8.920621 9.347284 0                        
Catchment_1015   1                264              0.001924463 4        2.523133 13.014747 0                        
Catchment_1016   1                266              0.314787135 4        32.262569 16.968781 0                        
Catchment_1017   1                269              0.23093554 4        27.639532 10.715706 0                        
Catchment_1018   1                265              0.023093554 4        8.740387 12.888842 0                        
Catchment_1019   1                267              0.46187108 16       39.088201 19.096325 0                        
Catchment_1020   1                18               0.002886694 4        3.090194 9.39491  0                        
Catchment_1021   1                52               0.054984652 4        13.469842 15.441511 0                        
Catchment_1022   1                38               0.349427465 4        33.99213 20.943249 0                        
Catchment_1023   1                17               0.012509008 4        6.432751 6.850763 0                        
Catchment_1024   1                37               0.142410249 4        21.704807 5.013335 0                        
Catchment_1025   1                16               0.274373414 4        30.119482 4.069822 0                        
Catchment_1026   1                32               0.250180168 4        28.768137 10.232252 0                        
Catchment_1027   1                14               0.063507274 4        14.494293 8.412139 0                        
Catchment_1028   1                15               0.239733084 4        28.153004 5.116848 0                        
Catchment_1029   1                33               0.037527025 4        11.141852 11.530512 0                        
Catchment_1030   1                259              0.086600827 4        16.925688 10.75468 0                        
Catchment_1031   1                261              0.090449753 4        17.297725 19.14825 0                        
Catchment_1032   1                260              0.050036034 4        12.865502 14.297151 0                        
Catchment_1033   1                262              0.25705325 4        29.152828 15.814907 0                        
Catchment_1034   1                292              0.109694381 4        19.049233 1.285847 0                        
Catchment_1035   1                247              0.069280662 4        15.138795 16.175477 0                        
Catchment_1036   1                254              0.188597357 4        24.977738 8.212519 0                        
Catchment_1037   1                256              0.232035233 4        27.697054 6.679    0                        
Catchment_1038   1                290              0.242482317 4        28.322092 1.315916 0                        
Catchment_1039   1                291              0.207841985 26       26.221162 4.002879 0                        
Catchment_1040   1                257              0.323309755 26       32.703535 1.501299 0                        
Catchment_1041   1                253              0.273273721 4        30.066594 8.536277 0                        
Catchment_1042   1                303              0.325234219 4        32.800723 12.223264 0                        
Catchment_1043   1                245              0.251279861 4        28.823407 11.639076 0                        
Catchment_1044   1                304              0.223237689 6        27.174969 8.333739 0                        
Catchment_1045   1                293              0.038489257 6        11.283792 12.126267 0                        
Catchment_1046   1                294              0.165503804 8        23.398568 10.908742 0                        
Catchment_1047   1                300              0.178150274 6        24.266712 1.501648 0                        
Catchment_1048   1                298              0.336780995 4        33.377906 4.609081 0                        
Catchment_1049   1                301              0.016357934 4        7.356132 8.131035 0                        
Catchment_1050   1                297              0.151207793 4        22.355011 9.143378 0                        
Catchment_1051   1                295              0.239733084 4        28.153004 18.261304 0                        
Catchment_1052   1                296              0.105020686 4        18.626803 5.003976 0                        
Catchment_1053   1                249              0.028866942 4        9.77205  6.996026 0                        
Catchment_1054   1                305              0.161654878 4        23.124892 10.357779 0                        
Catchment_1055   1                248              0.025980249 6        9.270581 7.319559 0                        
Catchment_1056   1                306              0.085776057 4        16.831393 14.202197 0                        
Catchment_1057   1                307              0.026942479 4        9.440697 14.375561 0                        
Catchment_1058   1                321              0.065431736 4        14.712264 9.67131  0                        
Catchment_1059   1                141              0.337880688 4        33.425555 6.356802 0                        
Catchment_1060   1                139              0.073129587 4        15.553633 6.966154 0                        
Catchment_1061   1                140              0.201243827 4        25.792783 6.103024 0                        
Catchment_1062   1                142              0.258977712 4        29.261811 5.360684 0                        
Catchment_1063   1                144              0.138561324 4        21.409489 8.189036 0                        
Catchment_1064   1                143              0.186672895 4        24.849973 7.586664 0                        
Catchment_1065   1                138              0.005773389 4        4.370194 5.98431  0                        
Catchment_1066   1                1_561            0.151207793 4        22.355011 4.202212 0                        
Catchment_1067   1                322              0.143509942 4        21.77801 7.245469 0                        
Catchment_1068   1                136              0.708202322 4        48.402074 4.659031 0                        
Catchment_1069   1                315              0.053884959 4        13.351162 4.63009  0                        
Catchment_1070   1                137              0.515756038 4        41.30546 6.951908 0                        
Catchment_1071   1                146              0.106945148 4        18.796914 6.148275 0                        
Catchment_1072   1                151              0.038489257 4        11.283792 6.406942 0                        
Catchment_1073   1                149              0.172376885 4        23.869954 5.570446 0                        
Catchment_1074   1                148              0.213615374 4        26.582851 6.580144 0                        
Catchment_1075   1                159              0.044262645 4        12.100518 6.997169 0                        
Catchment_1076   1                147              0.205917523 4        26.099486 7.315666 0                        
Catchment_1077   1                158              0.085776057 4        16.831393 7.548277 0                        
Catchment_1078   1                157              0.030791406 4        10.09253 5.497998 0                        
Catchment_1079   1                145              0.059658347 4        14.048207 6.622954 0                        
Catchment_1080   1                152              0.101171761 4        18.281832 10.317573 0                        
Catchment_1081   1                150              0.135812091 4        21.1853  8.333213 0                        
Catchment_1082   1                153              0.095398372 4        17.751811 8.528729 0                        
Catchment_1083   1                154              0.145434405 4        21.923684 7.893491 0                        
Catchment_1084   1                155              0.173201655 4        23.936537 5.421068 0                        
Catchment_1085   1                156              0.109694381 4        19.049233 4.295725 0                        
Catchment_1086   1                1_746            0.038489257 4        11.283792 3.452969 0                        
Catchment_1087   1                1_754            0.304065127 4        31.715284 3.452968 0                        
Catchment_1088   1                1_793            0.301315895 4        31.564378 3.452969 0                        
Catchment_1089   1                1_799            0.153132257 4        22.496949 3.452968 0                        
Catchment_1090   1                352              0.404137195 4        36.563664 3.452967 0                        
Catchment_1091   1                1_813            0.132787936 4        20.958713 3.452966 0                        
Catchment_1092   1                333              0.678510609 4        47.371771 5.231104 0                        
Catchment_1093   1                332              0.095398372 4        17.751811 9.164076 0                        
Catchment_1094   1                314              0.126189777 4        20.420234 1.596033 0                        
Catchment_1095   1                1097             0.315611904 4        32.311862 14.160606 0                        
Catchment_1096   1                313              0.00673562 4        4.720349 5.233894 0                        
Catchment_1097   1                580              0.026942479 26       9.440697 3.708054 0                        
Catchment_1098   1                331              0.136636861 4        21.260293 3.681818 0                        
Catchment_1099   1                310              0.262826638 6        29.478568 6.28     0                        
Catchment_1100   1                311              0.31946083 14       32.508289 4.36     0                        
Catchment_1101   1                316              0.26557587 14       29.640096 4.32     0                        
Catchment_1102   1                320              0.226261844 4        27.350105 3.703704 0                        
Catchment_1103   1                319              0.252104631 6        28.878572 3.84     0                        
Catchment_1104   1                318              0.2174643 26       26.821267 4.28     0                        
Catchment_1105   1                317              0.16357934 12       23.262132 4.08     0                        
Catchment_1106   1                515              0.035602562 4        10.852403 36.049855 0                        
Catchment_1107   1                308              0.185848125 4        24.785844 5.772727 0                        
Catchment_1829   1                1_826            0.130863472 12       20.806284 9.966143 0                        
Catchment_202    1                572              0.011546777 12       6.180387 9.155318 0                        
Catchment_203    1                1096             0.351351928 12       34.085643 9.271709 0                        
Catchment_204    1                827              0.025018017 12       9.097284 1.724306 0                        
Catchment_205    1                1_595            0.270524489 4        29.90737 12.432119 0                        
Catchment_206    1                583              0.130038703 14       20.729649 6.091041 0                        
Catchment_207    1                1093             0.068455892 22       15.033297 0.567101 0                        
Catchment_208    1                584              0.065431736 22       14.712264 7.454886 0                        
Catchment_209    1                732              0.01347124 12       6.675581 0        0                        
Catchment_210    1                731              0.03958895 22       11.423968 0.175814 0                        
Catchment_211    1                733              0.073129587 22       15.553633 0.015621 0                        
Catchment_212    1                772              0.164679033 22       23.33045 0        0                        
Catchment_213    1                786              0.096223142 22       17.841241 0        0                        
Catchment_214    1                773              0.181999199 22       24.527651 0.031135 0                        
Catchment_215    1                1005             0.232860002 22       27.754458 0.029985 0                        
Catchment_216    1                453              0.330182837 22       33.042441 8.09432  0                        
Catchment_217    1                450              0.080827439 22       16.351768 1.905955 0                        
Catchment_218    1                447              0.01347124 14       6.675581 0.804169 0                        
Catchment_219    1                448              0.023093554 14       8.740387 6.219958 0                        
Catchment_220    1                446              0.019244628 14       7.978846 1.152257 0                        
Catchment_221    1                445              0.011546777 12       6.180387 3.102721 0                        
Catchment_222    1                444              0.02020686 12       8.175884 0.801857 0                        
Catchment_223    1                1_364            0.010584545 12       5.91727  4.29634  0                        
Catchment_224    1                938              0.018282397 12       7.776817 13.885986 0                        
Catchment_225    1                937              0.022131323 14       8.556359 6.30277  0                        
Catchment_226    1                939              0.018282397 14       7.776817 14.114061 0                        
Catchment_227    1                455              0.164679033 14       23.33045 0        0                        
Catchment_228    1                464              0.078902976 14       16.155931 0.6402   0                        
Catchment_229    1                456              0.078902976 8        16.155931 3.798096 0                        
Catchment_230    1                460              0.009622314 8        5.641896 0.536965 0                        
Catchment_231    1                459              0.021169091 8        8.368284 1.984311 0                        
Catchment_232    1                458              0.023093554 8        8.740387 0        0                        
Catchment_233    1                935              0.01347124 8        6.675581 0.941407 0                        
Catchment_234    1                461              0.045362338 8        12.231339 0        0                        
Catchment_235    1                462              0.026942479 8        9.440697 1.295866 0                        
Catchment_236    1                1020             0.009622314 14       5.641896 1.053877 0                        
Catchment_237    1                934              0.053884959 8        13.351162 3.368796 0                        
Catchment_238    1                940              0.051960496 12       13.110581 2.142463 0                        
Catchment_239    1                464              0.005773389 12       4.370194 0.6402   0                        
Catchment_240    1                464              0.08852529 12       17.112717 0.6402   0                        
Catchment_241    1                921              0.069280662 12       15.138795 0        0                        
Catchment_242    1                926              0.032715868 12       10.403142 0.098577 0                        
Catchment_243    1                924              0.021169091 12       8.368284 0.354899 0                        
Catchment_244    1                925              0.021169091 12       8.368284 0.059278 0                        
Catchment_245    1                933              0.051960496 14       13.110581 1.151052 0                        
Catchment_246    1                922              0.051960496 14       13.110581 0.581443 0                        
Catchment_247    1                927              0.024055785 14       8.920621 0.236665 0                        
Catchment_248    1                928              0.023093554 14       8.740387 0.252381 0                        
Catchment_249    1                932              0.04811157 14       12.615663 3.948681 0                        
Catchment_250    1                929              0.021169091 14       8.368284 0        0                        
Catchment_251    1                921              0.004811157 8        3.989423 0        0                        
Catchment_252    1                918              0.041513412 8        11.699284 0.693646 0                        
Catchment_253    1                915              0.010584545 14       5.91727  0        0                        
Catchment_254    1                912              0.028866942 14       9.77205  0        0                        
Catchment_255    1                910              0.032715868 14       10.403142 0        0                        
Catchment_256    1                914              0.014433471 14       6.909883 0        0                        
Catchment_257    1                919              0.024055785 12       8.920621 0        0                        
Catchment_258    1                920              0.02020686 12       8.175884 0.279928 0                        
Catchment_259    1                916              0.037527025 8        11.141852 0        0                        
Catchment_260    1                911              0.034640331 12       10.704745 0        0                        
Catchment_261    1                856              0.029829174 12       9.933583 5.688996 0                        
Catchment_262    1                568              0.000962232 14       1.784124 12.945521 0                        
Catchment_263    1                569              0.000962232 8        1.784124 3.200261 0                        
Catchment_264    1                571              0.0336781 12       10.555021 7.346112 0                        
Catchment_265    1                MANONO1          0.027904711 12       9.607802 1.002161 0                        
Catchment_266    1                570              0.002886694 12       3.090194 4.418914 0                        
Catchment_267    1                829              0.175126117 12       24.06915 9.042256 0                        
Catchment_268    1                956              0.105845455 12       18.712052 1.479631 0                        
Catchment_269    1                903              0.078078206 16       16.057117 0        0                        
Catchment_270    1                904              0.04811157 12       12.615663 0        0                        
Catchment_271    1                907              0.026942479 12       9.440697 0.570623 0                        
Catchment_272    1                905              0.036564794 12       10.99808 0        0                        
Catchment_273    1                908              0.036564794 12       10.99808 0.948763 0                        
Catchment_274    1                906              0.0336781 32       10.555021 0        0                        
Catchment_275    1                897              0.01347124 32       6.675581 0        0                        
Catchment_276    1                898              0.019244628 32       7.978846 0        0                        
Catchment_277    1                900              0.112718537 32       19.298253 0.345467 0                        
Catchment_278    1                899              0.023093554 12       8.740387 0.776822 0                        
Catchment_279    1                921              0.036564794 8        10.99808 0        0                        
Catchment_280    1                902              0.064606967 8        14.603685 0        0                        
Catchment_281    1                981              0.040413719 18       11.562446 0        0                        
Catchment_282    1                892              0.009622314 18       5.641896 0        0                        
Catchment_283    1                896              0.019244628 18       7.978846 0        0                        
Catchment_284    1                893              0.031753636 18       10.249013 0        0                        
Catchment_285    1                892              0.004811157 18       3.989423 0        0                        
Catchment_286    1                890              0.022131323 18       8.556359 0        0                        
Catchment_287    1                889              0.019244628 18       7.978846 0        0                        
Catchment_288    1                872              0.019244628 18       7.978846 0        0                        
Catchment_289    1                874              0.026942479 32       9.440697 0        0                        
Catchment_290    1                871              0.035602562 32       10.852403 0        0                        
Catchment_291    1                873              0.021169091 8        8.368284 0        0                        
Catchment_292    1                875              0.032715868 14       10.403142 0        0                        
Catchment_293    1                891              0.029829174 14       9.933583 0        0                        
Catchment_294    1                892              0.273273721 14       30.066594 0        0                        
Catchment_295    1                863              0.160830108 14       23.055965 0        0                        
Catchment_296    1                913              0.193545976 12       25.294325 0.710979 0                        
Catchment_297    1                883              0.011546777 14       6.180387 3.326701 0                        
Catchment_298    1                885              0.01347124 14       6.675581 3.628427 0                        
Catchment_299    1                886              0.014433471 14       6.909883 0        0                        
Catchment_300    1                887              0.012509008 14       6.432751 1.241662 0                        
Catchment_301    1                882              0.022131323 16       8.556359 3.147212 0                        
Catchment_302    1                881              0.018282397 8        7.776817 3.573516 0                        
Catchment_303    1                884              0.019244628 14       7.978846 4.980158 0                        
Catchment_304    1                1032             0.069280662 14       15.138795 0        0                        
Catchment_305    1                888              0.082751902 14       16.545286 1.298645 0                        
Catchment_306    1                880              0.007697851 14       5.046265 0        0                        
Catchment_307    1                876              0.053884959 8        13.351162 0        0                        
Catchment_308    1                878              0.071205125 8        15.347616 0        0                        
Catchment_309    1                877              0.042338183 14       11.834541 0        0                        
Catchment_310    1                850              0.050036034 4        12.865502 4.29324  0                        
Catchment_311    1                848              0.019244628 8        7.978846 0        0                        
Catchment_312    1                849              0.038489257 4        11.283792 0        0                        
Catchment_313    1                852              0.000962232 4        1.784124 2.131725 0                        
Catchment_314    1                840              0.037527025 26       11.141852 0        0                        
Catchment_315    1                839              0.030791406 26       10.09253 0        0                        
Catchment_316    1                847              0.03958895 26       11.423968 0        0                        
Catchment_317    1                838              0.022131323 4        8.556359 0        0                        
Catchment_318    1                846              0.025980249 4        9.270581 0        0                        
Catchment_319    1                837              0.015395702 4        7.136496 0        0                        
Catchment_320    1                853              0.03958895 4        11.423968 0.909602 0                        
Catchment_321    1                836              0.014433471 16       6.909883 0        0                        
Catchment_322    1                851              0.12893901 4        20.65273 3.913347 0                        
Catchment_323    1                862              0.041513412 26       11.699284 0        0                        
Catchment_324    1                861              0.064606967 26       14.603685 0        0                        
Catchment_325    1                860              0.055809422 12       13.587484 0        0                        
Catchment_326    1                859              0.089624983 12       17.20547 0        0                        
Catchment_327    1                863              0.009622314 12       5.641896 0        0                        
Catchment_328    1                865              0.028866942 6        9.77205  0        0                        
Catchment_329    1                866              0.029829174 6        9.933583 0        0                        
Catchment_330    1                867              0.057733885 6        13.819766 0        0                        
Catchment_331    1                869              0.045362338 16       12.231339 0        0                        
Catchment_332    1                864              0.004811157 6        3.989423 0        0                        
Catchment_333    1                835              0.092374216 14       17.480775 1.273517 0                        
Catchment_334    1                833              0.108869612 26       18.9655  0.445427 0                        